MODEL 1
REMARK VINA RESULT:      -7.2      0.000      0.000
REMARK  Name = 25001248
REMARK                            x       y       z     vdW  Elec       q    Type
REMARK                         _______ _______ _______ _____ _____    ______ ____
ROOT
ATOM      1  C   LIG    1       19.597  41.134  53.482  0.00  0.00    +0.076 A 
ATOM      2  C   LIG    1       19.600  41.301  52.503  0.00  0.00    +0.047 A 
ATOM      3  C   LIG    1       19.694  42.280  52.357  0.00  0.00    +0.082 A 
ATOM      4  C   LIG    1       19.749  42.721  53.246  0.00  0.00    +0.123 A 
ATOM      5  C   LIG    1       19.846  43.679  53.515  0.00  0.00    +0.145 A 
ATOM      6  N   LIG    1       19.882  43.925  54.484  0.00  0.00    -0.217 NA
ATOM      7  C   LIG    1       19.821  43.213  55.183  0.00  0.00    +0.245 A 
ATOM      8  N   LIG    1       19.724  42.255  54.914  0.00  0.00    -0.154 NA
ATOM      9  N   LIG    1       19.688  42.009  53.946  0.00  0.00    -0.228 N 
ENDROOT
BRANCH   1  15
ATOM     10  O   LIG    1       18.760  39.941  54.509  0.00  0.00    -0.359 OA
ATOM     11  C   LIG    1       18.952  39.006  54.807  0.00  0.00    +0.176 C 
ATOM     12  C   LIG    1       19.826  38.728  54.407  0.00  0.00    +0.180 C 
ATOM     13  C   LIG    1       20.174  39.491  53.862  0.00  0.00    +0.123 C 
ATOM     14  C   LIG    1       20.753  40.050  53.270  0.00  0.00    +0.047 C 
ATOM     15  C   LIG    1       19.515  40.241  53.926  0.00  0.00    +0.201 C 
BRANCH  13  16
ATOM     16  O   LIG    1       20.979  38.950  53.620  0.00  0.00    -0.383 OA
ATOM     17  H   LIG    1       20.926  38.477  53.221  0.00  0.00    +0.210 HD
ENDBRANCH  13  16
BRANCH  12  18
ATOM     18  O   LIG    1       20.273  37.842  54.531  0.00  0.00    -0.386 OA
ATOM     19  H   LIG    1       20.691  37.765  54.981  0.00  0.00    +0.210 HD
ENDBRANCH  12  18
BRANCH  11  20
ATOM     20  C   LIG    1       18.373  38.448  55.400  0.00  0.00    +0.190 C 
BRANCH  20  21
ATOM     21  O   LIG    1       17.441  38.219  55.118  0.00  0.00    -0.392 OA
ATOM     22  H   LIG    1       17.251  37.629  55.126  0.00  0.00    +0.210 HD
ENDBRANCH  20  21
ENDBRANCH  11  20
ENDBRANCH   1  15
BRANCH   5  23
ATOM     23  N   LIG    1       19.906  44.391  52.815  0.00  0.00    -0.341 N 
ATOM     24  H   LIG    1       19.416  44.751  52.696  0.00  0.00    +0.144 HD
ATOM     25  H   LIG    1       20.434  44.472  52.501  0.00  0.00    +0.144 HD
ENDBRANCH   5  23
BRANCH   3  26
ATOM     26  C   LIG    1       19.728  42.741  51.469  0.00  0.00    +0.101 C 
ATOM     27  N   LIG    1       19.762  43.201  50.583  0.00  0.00    -0.191 NA
ENDBRANCH   3  26
TORSDOF 7
ENDMDL
MODEL 2
REMARK VINA RESULT:      -6.9      1.003      2.066
REMARK  Name = 25001248
REMARK                            x       y       z     vdW  Elec       q    Type
REMARK                         _______ _______ _______ _____ _____    ______ ____
ROOT
ATOM      1  C   LIG    1       19.473  40.954  54.269  0.00  0.00    +0.076 A 
ATOM      2  C   LIG    1       19.783  41.618  54.941  0.00  0.00    +0.047 A 
ATOM      3  C   LIG    1       20.110  42.420  54.453  0.00  0.00    +0.082 A 
ATOM      4  C   LIG    1       20.002  42.255  53.479  0.00  0.00    +0.123 A 
ATOM      5  C   LIG    1       20.211  42.813  52.676  0.00  0.00    +0.145 A 
ATOM      6  N   LIG    1       20.024  42.461  51.760  0.00  0.00    -0.217 NA
ATOM      7  C   LIG    1       19.628  41.550  51.645  0.00  0.00    +0.245 A 
ATOM      8  N   LIG    1       19.419  40.991  52.448  0.00  0.00    -0.154 NA
ATOM      9  N   LIG    1       19.605  41.344  53.365  0.00  0.00    -0.228 N 
ENDROOT
BRANCH   1  15
ATOM     10  O   LIG    1       18.154  39.859  54.758  0.00  0.00    -0.359 OA
ATOM     11  C   LIG    1       18.065  38.871  54.883  0.00  0.00    +0.176 C 
ATOM     12  C   LIG    1       18.947  38.453  54.671  0.00  0.00    +0.180 C 
ATOM     13  C   LIG    1       19.583  39.181  54.415  0.00  0.00    +0.123 C 
ATOM     14  C   LIG    1       20.409  39.665  54.129  0.00  0.00    +0.047 C 
ATOM     15  C   LIG    1       19.092  40.051  54.469  0.00  0.00    +0.201 C 
BRANCH  13  16
ATOM     16  O   LIG    1       20.304  38.503  54.276  0.00  0.00    -0.383 OA
ATOM     17  H   LIG    1       20.845  38.560  54.575  0.00  0.00    +0.210 HD
ENDBRANCH  13  16
BRANCH  12  18
ATOM     18  O   LIG    1       19.158  37.475  54.708  0.00  0.00    -0.386 OA
ATOM     19  H   LIG    1       19.321  37.173  54.193  0.00  0.00    +0.210 HD
ENDBRANCH  12  18
BRANCH  11  20
ATOM     20  C   LIG    1       17.238  38.388  55.169  0.00  0.00    +0.190 C 
BRANCH  20  21
ATOM     21  O   LIG    1       16.359  38.603  54.744  0.00  0.00    -0.392 OA
ATOM     22  H   LIG    1       16.287  39.134  54.431  0.00  0.00    +0.210 HD
ENDBRANCH  20  21
ENDBRANCH  11  20
ENDBRANCH   1  15
BRANCH   5  23
ATOM     23  N   LIG    1       20.607  43.724  52.791  0.00  0.00    -0.341 N 
ATOM     24  H   LIG    1       20.541  44.150  52.344  0.00  0.00    +0.144 HD
ATOM     25  H   LIG    1       20.919  43.864  53.308  0.00  0.00    +0.144 HD
ENDBRANCH   5  23
BRANCH   3  26
ATOM     26  C   LIG    1       20.483  43.250  54.871  0.00  0.00    +0.101 C 
ATOM     27  N   LIG    1       20.855  44.078  55.288  0.00  0.00    -0.191 NA
ENDBRANCH   3  26
TORSDOF 7
ENDMDL
MODEL 3
REMARK VINA RESULT:      -6.3      2.600      4.696
REMARK  Name = 25001248
REMARK                            x       y       z     vdW  Elec       q    Type
REMARK                         _______ _______ _______ _____ _____    ______ ____
ROOT
ATOM      1  C   LIG    1       19.265  40.928  54.174  0.00  0.00    +0.076 A 
ATOM      2  C   LIG    1       18.363  40.721  54.537  0.00  0.00    +0.047 A 
ATOM      3  C   LIG    1       18.291  39.735  54.642  0.00  0.00    +0.082 A 
ATOM      4  C   LIG    1       19.149  39.330  54.344  0.00  0.00    +0.123 A 
ATOM      5  C   LIG    1       19.463  38.382  54.299  0.00  0.00    +0.145 A 
ATOM      6  N   LIG    1       20.381  38.175  53.962  0.00  0.00    -0.217 NA
ATOM      7  C   LIG    1       20.986  38.916  53.672  0.00  0.00    +0.245 A 
ATOM      8  N   LIG    1       20.673  39.864  53.718  0.00  0.00    -0.154 NA
ATOM      9  N   LIG    1       19.754  40.071  54.054  0.00  0.00    -0.228 N 
ENDROOT
BRANCH   1  15
ATOM     10  O   LIG    1       19.706  42.244  53.056  0.00  0.00    -0.359 OA
ATOM     11  C   LIG    1       20.089  43.162  53.160  0.00  0.00    +0.176 C 
ATOM     12  C   LIG    1       20.238  43.325  54.135  0.00  0.00    +0.180 C 
ATOM     13  C   LIG    1       19.948  42.509  54.634  0.00  0.00    +0.123 C 
ATOM     14  C   LIG    1       19.750  41.868  55.375  0.00  0.00    +0.047 C 
ATOM     15  C   LIG    1       19.619  41.840  53.967  0.00  0.00    +0.201 C 
BRANCH  13  16
ATOM     16  O   LIG    1       20.200  42.947  55.497  0.00  0.00    -0.383 OA
ATOM     17  H   LIG    1       20.106  42.651  56.034  0.00  0.00    +0.210 HD
ENDBRANCH  13  16
BRANCH  12  18
ATOM     18  O   LIG    1       20.613  44.160  54.540  0.00  0.00    -0.386 OA
ATOM     19  H   LIG    1       20.752  44.644  54.180  0.00  0.00    +0.210 HD
ENDBRANCH  12  18
BRANCH  11  20
ATOM     20  C   LIG    1       20.287  43.802  52.419  0.00  0.00    +0.190 C 
BRANCH  20  21
ATOM     21  O   LIG    1       19.539  44.244  51.925  0.00  0.00    -0.392 OA
ATOM     22  H   LIG    1       19.655  44.564  51.407  0.00  0.00    +0.210 HD
ENDBRANCH  20  21
ENDBRANCH  11  20
ENDBRANCH   1  15
BRANCH   5  23
ATOM     23  N   LIG    1       18.858  37.640  54.589  0.00  0.00    -0.341 N 
ATOM     24  H   LIG    1       18.626  37.636  55.164  0.00  0.00    +0.144 HD
ATOM     25  H   LIG    1       18.714  37.185  54.194  0.00  0.00    +0.144 HD
ENDBRANCH   5  23
BRANCH   3  26
ATOM     26  C   LIG    1       17.495  39.238  54.986  0.00  0.00    +0.101 C 
ATOM     27  N   LIG    1       16.699  38.741  55.331  0.00  0.00    -0.191 NA
ENDBRANCH   3  26
TORSDOF 7
ENDMDL
MODEL 4
REMARK VINA RESULT:      -6.3     11.682     12.909
REMARK  Name = 25001248
REMARK                            x       y       z     vdW  Elec       q    Type
REMARK                         _______ _______ _______ _____ _____    ______ ____
ROOT
ATOM      1  C   LIG    1       20.134  32.874  63.093  0.00  0.00    +0.076 A 
ATOM      2  C   LIG    1       19.987  33.777  63.479  0.00  0.00    +0.047 A 
ATOM      3  C   LIG    1       19.010  33.962  63.465  0.00  0.00    +0.082 A 
ATOM      4  C   LIG    1       18.552  33.173  63.070  0.00  0.00    +0.123 A 
ATOM      5  C   LIG    1       17.588  32.978  62.889  0.00  0.00    +0.145 A 
ATOM      6  N   LIG    1       17.323  32.106  62.477  0.00  0.00    -0.217 NA
ATOM      7  C   LIG    1       18.022  31.430  62.246  0.00  0.00    +0.245 A 
ATOM      8  N   LIG    1       18.986  31.625  62.427  0.00  0.00    -0.154 NA
ATOM      9  N   LIG    1       19.251  32.497  62.839  0.00  0.00    -0.228 N 
ENDROOT
BRANCH   1  15
ATOM     10  O   LIG    1       21.362  31.655  63.523  0.00  0.00    -0.359 OA
ATOM     11  C   LIG    1       22.272  31.417  63.183  0.00  0.00    +0.176 C 
ATOM     12  C   LIG    1       22.491  32.036  62.430  0.00  0.00    +0.180 C 
ATOM     13  C   LIG    1       21.718  32.657  62.304  0.00  0.00    +0.123 C 
ATOM     14  C   LIG    1       21.132  33.386  61.952  0.00  0.00    +0.047 C 
ATOM     15  C   LIG    1       21.020  32.422  62.980  0.00  0.00    +0.201 C 
BRANCH  13  16
ATOM     16  O   LIG    1       22.201  33.106  61.552  0.00  0.00    -0.383 OA
ATOM     17  H   LIG    1       22.406  33.688  61.619  0.00  0.00    +0.210 HD
ENDBRANCH  13  16
BRANCH  12  18
ATOM     18  O   LIG    1       23.337  32.034  61.896  0.00  0.00    -0.386 OA
ATOM     19  H   LIG    1       23.804  31.659  62.055  0.00  0.00    +0.210 HD
ENDBRANCH  12  18
BRANCH  11  20
ATOM     20  C   LIG    1       22.858  30.687  63.535  0.00  0.00    +0.190 C 
BRANCH  20  21
ATOM     21  O   LIG    1       22.635  29.731  63.347  0.00  0.00    -0.392 OA
ATOM     22  H   LIG    1       23.021  29.281  63.527  0.00  0.00    +0.210 HD
ENDBRANCH  20  21
ENDBRANCH  11  20
ENDBRANCH   1  15
BRANCH   5  23
ATOM     23  N   LIG    1       16.889  33.655  63.120  0.00  0.00    -0.341 N 
ATOM     24  H   LIG    1       16.499  33.550  63.590  0.00  0.00    +0.144 HD
ATOM     25  H   LIG    1       16.845  34.180  62.792  0.00  0.00    +0.144 HD
ENDBRANCH   5  23
BRANCH   3  26
ATOM     26  C   LIG    1       18.565  34.798  63.791  0.00  0.00    +0.101 C 
ATOM     27  N   LIG    1       18.122  35.632  64.116  0.00  0.00    -0.191 NA
ENDBRANCH   3  26
TORSDOF 7
ENDMDL
MODEL 5
REMARK VINA RESULT:      -6.1     11.971     14.113
REMARK  Name = 25001248
REMARK                            x       y       z     vdW  Elec       q    Type
REMARK                         _______ _______ _______ _____ _____    ______ ____
ROOT
ATOM      1  C   LIG    1       22.874  31.563  63.179  0.00  0.00    +0.076 A 
ATOM      2  C   LIG    1       22.367  31.185  63.945  0.00  0.00    +0.047 A 
ATOM      3  C   LIG    1       21.428  31.505  63.882  0.00  0.00    +0.082 A 
ATOM      4  C   LIG    1       21.352  32.082  63.076  0.00  0.00    +0.123 A 
ATOM      5  C   LIG    1       20.582  32.582  62.680  0.00  0.00    +0.145 A 
ATOM      6  N   LIG    1       20.711  33.118  61.845  0.00  0.00    -0.217 NA
ATOM      7  C   LIG    1       21.610  33.154  61.408  0.00  0.00    +0.245 A 
ATOM      8  N   LIG    1       22.379  32.654  61.805  0.00  0.00    -0.154 NA
ATOM      9  N   LIG    1       22.251  32.118  62.639  0.00  0.00    -0.228 N 
ENDROOT
BRANCH   1  15
ATOM     10  O   LIG    1       24.535  32.122  62.855  0.00  0.00    -0.359 OA
ATOM     11  C   LIG    1       25.410  31.672  62.675  0.00  0.00    +0.176 C 
ATOM     12  C   LIG    1       25.259  30.684  62.693  0.00  0.00    +0.180 C 
ATOM     13  C   LIG    1       24.290  30.522  62.883  0.00  0.00    +0.123 C 
ATOM     14  C   LIG    1       23.418  30.064  63.051  0.00  0.00    +0.047 C 
ATOM     15  C   LIG    1       23.843  31.411  62.984  0.00  0.00    +0.201 C 
BRANCH  13  16
ATOM     16  O   LIG    1       24.447  29.536  62.839  0.00  0.00    -0.383 OA
ATOM     17  H   LIG    1       24.829  29.302  62.410  0.00  0.00    +0.210 HD
ENDBRANCH  13  16
BRANCH  12  18
ATOM     18  O   LIG    1       25.955  29.981  62.545  0.00  0.00    -0.386 OA
ATOM     19  H   LIG    1       26.477  29.986  62.878  0.00  0.00    +0.210 HD
ENDBRANCH  12  18
BRANCH  11  20
ATOM     20  C   LIG    1       26.282  32.131  62.508  0.00  0.00    +0.190 C 
BRANCH  20  21
ATOM     21  O   LIG    1       26.676  32.728  63.206  0.00  0.00    -0.392 OA
ATOM     22  H   LIG    1       26.942  33.264  63.042  0.00  0.00    +0.210 HD
ENDBRANCH  20  21
ENDBRANCH  11  20
ENDBRANCH   1  15
BRANCH   5  23
ATOM     23  N   LIG    1       19.684  32.546  63.117  0.00  0.00    -0.341 N 
ATOM     24  H   LIG    1       19.641  32.514  63.735  0.00  0.00    +0.144 HD
ATOM     25  H   LIG    1       19.170  32.556  62.770  0.00  0.00    +0.144 HD
ENDBRANCH   5  23
BRANCH   3  26
ATOM     26  C   LIG    1       20.688  31.285  64.519  0.00  0.00    +0.101 C 
ATOM     27  N   LIG    1       19.950  31.064  65.155  0.00  0.00    -0.191 NA
ENDBRANCH   3  26
TORSDOF 7
ENDMDL
MODEL 6
REMARK VINA RESULT:      -6.1     11.694     12.745
REMARK  Name = 25001248
REMARK                            x       y       z     vdW  Elec       q    Type
REMARK                         _______ _______ _______ _____ _____    ______ ____
ROOT
ATOM      1  C   LIG    1       19.949  32.664  62.827  0.00  0.00    +0.076 A 
ATOM      2  C   LIG    1       19.210  32.240  62.316  0.00  0.00    +0.047 A 
ATOM      3  C   LIG    1       18.352  32.626  62.636  0.00  0.00    +0.082 A 
ATOM      4  C   LIG    1       18.558  33.290  63.347  0.00  0.00    +0.123 A 
ATOM      5  C   LIG    1       17.974  33.879  63.904  0.00  0.00    +0.145 A 
ATOM      6  N   LIG    1       18.382  34.492  64.581  0.00  0.00    -0.217 NA
ATOM      7  C   LIG    1       19.374  34.515  64.700  0.00  0.00    +0.245 A 
ATOM      8  N   LIG    1       19.959  33.926  64.142  0.00  0.00    -0.154 NA
ATOM      9  N   LIG    1       19.551  33.313  63.466  0.00  0.00    -0.228 N 
ENDROOT
BRANCH   1  15
ATOM     10  O   LIG    1       21.474  31.873  63.303  0.00  0.00    -0.359 OA
ATOM     11  C   LIG    1       22.410  31.874  62.952  0.00  0.00    +0.176 C 
ATOM     12  C   LIG    1       22.439  32.472  62.152  0.00  0.00    +0.180 C 
ATOM     13  C   LIG    1       21.521  32.841  62.007  0.00  0.00    +0.123 C 
ATOM     14  C   LIG    1       20.750  33.349  61.624  0.00  0.00    +0.047 C 
ATOM     15  C   LIG    1       20.924  32.470  62.719  0.00  0.00    +0.201 C 
BRANCH  13  16
ATOM     16  O   LIG    1       21.852  33.350  61.212  0.00  0.00    -0.383 OA
ATOM     17  H   LIG    1       22.382  33.670  61.248  0.00  0.00    +0.210 HD
ENDBRANCH  13  16
BRANCH  12  18
ATOM     18  O   LIG    1       23.246  32.667  61.594  0.00  0.00    -0.386 OA
ATOM     19  H   LIG    1       23.302  33.214  61.309  0.00  0.00    +0.210 HD
ENDBRANCH  12  18
BRANCH  11  20
ATOM     20  C   LIG    1       23.181  31.365  63.336  0.00  0.00    +0.190 C 
BRANCH  20  21
ATOM     21  O   LIG    1       23.287  30.392  63.137  0.00  0.00    -0.392 OA
ATOM     22  H   LIG    1       22.982  30.137  62.662  0.00  0.00    +0.210 HD
ENDBRANCH  20  21
ENDBRANCH  11  20
ENDBRANCH   1  15
BRANCH   5  23
ATOM     23  N   LIG    1       16.981  33.855  63.786  0.00  0.00    -0.341 N 
ATOM     24  H   LIG    1       16.680  33.313  63.795  0.00  0.00    +0.144 HD
ATOM     25  H   LIG    1       16.666  34.383  63.703  0.00  0.00    +0.144 HD
ENDBRANCH   5  23
BRANCH   3  26
ATOM     26  C   LIG    1       17.439  32.388  62.302  0.00  0.00    +0.101 C 
ATOM     27  N   LIG    1       16.528  32.150  61.967  0.00  0.00    -0.191 NA
ENDBRANCH   3  26
TORSDOF 7
ENDMDL
MODEL 7
REMARK VINA RESULT:      -6.0     12.874     14.896
REMARK  Name = 25001248
REMARK                            x       y       z     vdW  Elec       q    Type
REMARK                         _______ _______ _______ _____ _____    ______ ____
ROOT
ATOM      1  C   LIG    1       23.859  31.042  63.248  0.00  0.00    +0.076 A 
ATOM      2  C   LIG    1       24.384  30.407  62.693  0.00  0.00    +0.047 A 
ATOM      3  C   LIG    1       25.267  30.273  63.130  0.00  0.00    +0.082 A 
ATOM      4  C   LIG    1       25.289  30.826  63.956  0.00  0.00    +0.123 A 
ATOM      5  C   LIG    1       25.992  30.959  64.655  0.00  0.00    +0.145 A 
ATOM      6  N   LIG    1       25.819  31.571  65.427  0.00  0.00    -0.217 NA
ATOM      7  C   LIG    1       24.944  32.049  65.501  0.00  0.00    +0.245 A 
ATOM      8  N   LIG    1       24.242  31.915  64.802  0.00  0.00    -0.154 NA
ATOM      9  N   LIG    1       24.414  31.304  64.029  0.00  0.00    -0.228 N 
ENDROOT
BRANCH   1  15
ATOM     10  O   LIG    1       22.687  32.242  62.643  0.00  0.00    -0.359 OA
ATOM     11  C   LIG    1       21.690  32.283  62.572  0.00  0.00    +0.176 C 
ATOM     12  C   LIG    1       21.319  31.430  62.938  0.00  0.00    +0.180 C 
ATOM     13  C   LIG    1       22.085  30.861  63.236  0.00  0.00    +0.123 C 
ATOM     14  C   LIG    1       22.616  30.101  63.608  0.00  0.00    +0.047 C 
ATOM     15  C   LIG    1       22.931  31.363  63.054  0.00  0.00    +0.201 C 
BRANCH  13  16
ATOM     16  O   LIG    1       21.444  30.150  63.524  0.00  0.00    -0.383 OA
ATOM     17  H   LIG    1       21.638  29.689  63.891  0.00  0.00    +0.210 HD
ENDBRANCH  13  16
BRANCH  12  18
ATOM     18  O   LIG    1       20.350  31.189  62.996  0.00  0.00    -0.386 OA
ATOM     19  H   LIG    1       19.976  31.287  62.512  0.00  0.00    +0.210 HD
ENDBRANCH  12  18
BRANCH  11  20
ATOM     20  C   LIG    1       21.160  33.044  62.199  0.00  0.00    +0.190 C 
BRANCH  20  21
ATOM     21  O   LIG    1       21.345  33.379  61.276  0.00  0.00    -0.392 OA
ATOM     22  H   LIG    1       21.802  33.788  61.180  0.00  0.00    +0.210 HD
ENDBRANCH  20  21
ENDBRANCH  11  20
ENDBRANCH   1  15
BRANCH   5  23
ATOM     23  N   LIG    1       26.867  30.481  64.582  0.00  0.00    -0.341 N 
ATOM     24  H   LIG    1       26.886  29.862  64.612  0.00  0.00    +0.144 HD
ATOM     25  H   LIG    1       27.391  30.804  64.506  0.00  0.00    +0.144 HD
ENDBRANCH   5  23
BRANCH   3  26
ATOM     26  C   LIG    1       26.004  29.685  62.796  0.00  0.00    +0.101 C 
ATOM     27  N   LIG    1       26.741  29.097  62.463  0.00  0.00    -0.191 NA
ENDBRANCH   3  26
TORSDOF 7
ENDMDL
MODEL 8
REMARK VINA RESULT:      -6.0     12.903     14.136
REMARK  Name = 25001248
REMARK                            x       y       z     vdW  Elec       q    Type
REMARK                         _______ _______ _______ _____ _____    ______ ____
ROOT
ATOM      1  C   LIG    1       21.821  31.596  62.975  0.00  0.00    +0.076 A 
ATOM      2  C   LIG    1       22.642  32.062  62.665  0.00  0.00    +0.047 A 
ATOM      3  C   LIG    1       23.404  31.428  62.743  0.00  0.00    +0.082 A 
ATOM      4  C   LIG    1       23.056  30.569  63.101  0.00  0.00    +0.123 A 
ATOM      5  C   LIG    1       23.504  29.701  63.317  0.00  0.00    +0.145 A 
ATOM      6  N   LIG    1       22.968  28.938  63.677  0.00  0.00    -0.217 NA
ATOM      7  C   LIG    1       21.984  29.042  63.821  0.00  0.00    +0.245 A 
ATOM      8  N   LIG    1       21.536  29.910  63.605  0.00  0.00    -0.154 NA
ATOM      9  N   LIG    1       22.072  30.673  63.245  0.00  0.00    -0.228 N 
ENDROOT
BRANCH   1  15
ATOM     10  O   LIG    1       20.144  31.765  62.394  0.00  0.00    -0.359 OA
ATOM     11  C   LIG    1       19.352  32.311  62.668  0.00  0.00    +0.176 C 
ATOM     12  C   LIG    1       19.620  32.870  63.452  0.00  0.00    +0.180 C 
ATOM     13  C   LIG    1       20.577  32.672  63.663  0.00  0.00    +0.123 C 
ATOM     14  C   LIG    1       21.478  32.684  64.096  0.00  0.00    +0.047 C 
ATOM     15  C   LIG    1       20.901  31.988  63.008  0.00  0.00    +0.201 C 
BRANCH  13  16
ATOM     16  O   LIG    1       20.547  33.326  64.419  0.00  0.00    -0.383 OA
ATOM     17  H   LIG    1       20.008  33.588  64.580  0.00  0.00    +0.210 HD
ENDBRANCH  13  16
BRANCH  12  18
ATOM     18  O   LIG    1       19.033  33.517  63.940  0.00  0.00    -0.386 OA
ATOM     19  H   LIG    1       18.947  34.088  63.717  0.00  0.00    +0.210 HD
ENDBRANCH  12  18
BRANCH  11  20
ATOM     20  C   LIG    1       18.452  32.298  62.234  0.00  0.00    +0.190 C 
BRANCH  20  21
ATOM     21  O   LIG    1       18.183  31.524  61.661  0.00  0.00    -0.392 OA
ATOM     22  H   LIG    1       17.583  31.409  61.556  0.00  0.00    +0.210 HD
ENDBRANCH  20  21
ENDBRANCH  11  20
ENDBRANCH   1  15
BRANCH   5  23
ATOM     23  N   LIG    1       24.488  29.597  63.173  0.00  0.00    -0.341 N 
ATOM     24  H   LIG    1       24.781  29.959  62.763  0.00  0.00    +0.144 HD
ATOM     25  H   LIG    1       24.805  29.171  63.493  0.00  0.00    +0.144 HD
ENDBRANCH   5  23
BRANCH   3  26
ATOM     26  C   LIG    1       24.356  31.622  62.502  0.00  0.00    +0.101 C 
ATOM     27  N   LIG    1       25.307  31.815  62.262  0.00  0.00    -0.191 NA
ENDBRANCH   3  26
TORSDOF 7
ENDMDL
MODEL 9
REMARK VINA RESULT:      -5.8     12.186     13.479
REMARK  Name = 25001248
REMARK                            x       y       z     vdW  Elec       q    Type
REMARK                         _______ _______ _______ _____ _____    ______ ____
ROOT
ATOM      1  C   LIG    1       18.144  31.776  62.167  0.00  0.00    +0.076 A 
ATOM      2  C   LIG    1       17.310  32.085  61.723  0.00  0.00    +0.047 A 
ATOM      3  C   LIG    1       16.678  31.318  61.685  0.00  0.00    +0.082 A 
ATOM      4  C   LIG    1       17.120  30.533  62.106  0.00  0.00    +0.123 A 
ATOM      5  C   LIG    1       16.815  29.593  62.258  0.00  0.00    +0.145 A 
ATOM      6  N   LIG    1       17.421  28.938  62.709  0.00  0.00    -0.217 NA
ATOM      7  C   LIG    1       18.331  29.222  63.008  0.00  0.00    +0.245 A 
ATOM      8  N   LIG    1       18.636  30.162  62.857  0.00  0.00    -0.154 NA
ATOM      9  N   LIG    1       18.031  30.818  62.405  0.00  0.00    -0.228 N 
ENDROOT
BRANCH   1  15
ATOM     10  O   LIG    1       19.841  32.242  61.889  0.00  0.00    -0.359 OA
ATOM     11  C   LIG    1       20.457  32.931  62.270  0.00  0.00    +0.176 C 
ATOM     12  C   LIG    1       19.952  33.448  62.960  0.00  0.00    +0.180 C 
ATOM     13  C   LIG    1       19.024  33.079  63.006  0.00  0.00    +0.123 C 
ATOM     14  C   LIG    1       18.071  32.933  63.270  0.00  0.00    +0.047 C 
ATOM     15  C   LIG    1       18.956  32.333  62.344  0.00  0.00    +0.201 C 
BRANCH  13  16
ATOM     16  O   LIG    1       18.795  33.743  63.718  0.00  0.00    -0.383 OA
ATOM     17  H   LIG    1       18.241  33.720  63.996  0.00  0.00    +0.210 HD
ENDBRANCH  13  16
BRANCH  12  18
ATOM     18  O   LIG    1       20.313  34.203  63.509  0.00  0.00    -0.386 OA
ATOM     19  H   LIG    1       19.961  34.700  63.623  0.00  0.00    +0.210 HD
ENDBRANCH  12  18
BRANCH  11  20
ATOM     20  C   LIG    1       21.410  33.077  62.006  0.00  0.00    +0.190 C 
BRANCH  20  21
ATOM     21  O   LIG    1       21.635  33.354  61.072  0.00  0.00    -0.392 OA
ATOM     22  H   LIG    1       21.366  33.071  60.591  0.00  0.00    +0.210 HD
ENDBRANCH  20  21
ENDBRANCH  11  20
ENDBRANCH   1  15
BRANCH   5  23
ATOM     23  N   LIG    1       15.905  29.308  61.958  0.00  0.00    -0.341 N 
ATOM     24  H   LIG    1       15.838  28.981  61.436  0.00  0.00    +0.144 HD
ATOM     25  H   LIG    1       15.406  29.459  62.295  0.00  0.00    +0.144 HD
ENDBRANCH   5  23
BRANCH   3  26
ATOM     26  C   LIG    1       15.759  31.334  61.292  0.00  0.00    +0.101 C 
ATOM     27  N   LIG    1       14.839  31.350  60.899  0.00  0.00    -0.191 NA
ENDBRANCH   3  26
TORSDOF 7
ENDMDL
