MODEL 1
REMARK VINA RESULT:      -8.4      0.000      0.000
REMARK  Name = 44468219
REMARK                            x       y       z     vdW  Elec       q    Type
REMARK                         _______ _______ _______ _____ _____    ______ ____
ROOT
ATOM      1  O   LIG    1       19.667  41.678  52.882  0.00  0.00    -0.344 OA
ATOM      2  C   LIG    1       20.035  42.333  52.222  0.00  0.00    +0.177 C 
ATOM      3  C   LIG    1       20.478  43.070  52.733  0.00  0.00    +0.178 C 
ATOM      4  C   LIG    1       20.384  42.870  53.708  0.00  0.00    +0.196 C 
ATOM      5  C   LIG    1       19.883  42.010  53.801  0.00  0.00    +0.200 C 
ENDROOT
BRANCH   5   6
ATOM      6  C   LIG    1       19.426  41.213  54.196  0.00  0.00    +0.090 A 
ATOM      7  C   LIG    1       18.568  41.222  54.697  0.00  0.00    +0.029 A 
ATOM      8  C   LIG    1       18.360  40.288  54.969  0.00  0.00    +0.033 A 
ATOM      9  C   LIG    1       19.090  39.700  54.637  0.00  0.00    +0.105 A 
ATOM     10  C   LIG    1       19.241  38.714  54.708  0.00  0.00    +0.144 A 
ATOM     11  N   LIG    1       20.055  38.303  54.298  0.00  0.00    -0.217 NA
ATOM     12  C   LIG    1       20.718  38.878  53.818  0.00  0.00    +0.245 A 
ATOM     13  N   LIG    1       20.567  39.863  53.748  0.00  0.00    -0.154 NA
ATOM     14  N   LIG    1       19.752  40.275  54.157  0.00  0.00    -0.228 N 
BRANCH  10  15
ATOM     15  N   LIG    1       18.578  38.139  55.188  0.00  0.00    -0.341 N 
ATOM     16  H   LIG    1       18.136  37.844  54.869  0.00  0.00    +0.144 HD
ATOM     17  H   LIG    1       18.609  38.079  55.804  0.00  0.00    +0.144 HD
ENDBRANCH  10  15
ENDBRANCH   5   6
BRANCH   4  18
ATOM     18  O   LIG    1       20.731  43.432  54.459  0.00  0.00    -0.385 OA
ATOM     19  H   LIG    1       20.760  43.198  55.034  0.00  0.00    +0.210 HD
ENDBRANCH   4  18
BRANCH   3  20
ATOM     20  O   LIG    1       20.934  43.866  52.338  0.00  0.00    -0.386 OA
ATOM     21  H   LIG    1       20.932  44.408  52.641  0.00  0.00    +0.210 HD
ENDBRANCH   3  20
BRANCH   5  22
ATOM     22  C   LIG    1       19.948  42.080  54.796  0.00  0.00    -0.062 C 
ATOM     23  C   LIG    1       20.012  42.149  55.792  0.00  0.00    +0.007 C 
ENDBRANCH   5  22
BRANCH   2  24
ATOM     24  C   LIG    1       19.971  42.264  51.227  0.00  0.00    +0.190 C 
BRANCH  24  25
ATOM     25  O   LIG    1       19.154  42.593  50.754  0.00  0.00    -0.392 OA
ATOM     26  H   LIG    1       19.146  43.162  50.509  0.00  0.00    +0.210 HD
ENDBRANCH  24  25
ENDBRANCH   2  24
TORSDOF 7
ENDMDL
MODEL 2
REMARK VINA RESULT:      -7.6      1.055      2.465
REMARK  Name = 44468219
REMARK                            x       y       z     vdW  Elec       q    Type
REMARK                         _______ _______ _______ _____ _____    ______ ____
ROOT
ATOM      1  O   LIG    1       20.076  42.282  54.026  0.00  0.00    -0.344 OA
ATOM      2  C   LIG    1       19.939  43.271  53.991  0.00  0.00    +0.177 C 
ATOM      3  C   LIG    1       19.761  43.525  53.040  0.00  0.00    +0.178 C 
ATOM      4  C   LIG    1       19.788  42.692  52.488  0.00  0.00    +0.196 C 
ATOM      5  C   LIG    1       19.983  41.923  53.097  0.00  0.00    +0.200 C 
ENDROOT
BRANCH   5   6
ATOM      6  C   LIG    1       20.157  40.998  53.436  0.00  0.00    +0.090 A 
ATOM      7  C   LIG    1       20.977  40.462  53.270  0.00  0.00    +0.029 A 
ATOM      8  C   LIG    1       20.870  39.586  53.728  0.00  0.00    +0.033 A 
ATOM      9  C   LIG    1       19.984  39.579  54.178  0.00  0.00    +0.105 A 
ATOM     10  C   LIG    1       19.518  38.889  54.732  0.00  0.00    +0.144 A 
ATOM     11  N   LIG    1       18.609  39.077  55.104  0.00  0.00    -0.217 NA
ATOM     12  C   LIG    1       18.166  39.955  54.922  0.00  0.00    +0.245 A 
ATOM     13  N   LIG    1       18.632  40.645  54.368  0.00  0.00    -0.154 NA
ATOM     14  N   LIG    1       19.541  40.457  53.997  0.00  0.00    -0.228 N 
BRANCH  10  15
ATOM     15  N   LIG    1       19.961  38.011  54.914  0.00  0.00    -0.341 N 
ATOM     16  H   LIG    1       20.541  37.910  54.718  0.00  0.00    +0.144 HD
ATOM     17  H   LIG    1       19.656  37.568  55.222  0.00  0.00    +0.144 HD
ENDBRANCH  10  15
ENDBRANCH   5   6
BRANCH   4  18
ATOM     18  O   LIG    1       19.646  42.637  51.499  0.00  0.00    -0.385 OA
ATOM     19  H   LIG    1       19.283  42.193  51.263  0.00  0.00    +0.210 HD
ENDBRANCH   4  18
BRANCH   3  20
ATOM     20  O   LIG    1       19.587  44.449  52.702  0.00  0.00    -0.386 OA
ATOM     21  H   LIG    1       19.506  44.916  53.103  0.00  0.00    +0.210 HD
ENDBRANCH   3  20
BRANCH   5  22
ATOM     22  C   LIG    1       19.948  41.297  52.318  0.00  0.00    -0.062 C 
ATOM     23  C   LIG    1       19.914  40.672  51.539  0.00  0.00    +0.007 C 
ENDBRANCH   5  22
BRANCH   2  24
ATOM     24  C   LIG    1       19.973  43.897  54.770  0.00  0.00    +0.190 C 
BRANCH  24  25
ATOM     25  O   LIG    1       20.829  44.027  55.270  0.00  0.00    -0.392 OA
ATOM     26  H   LIG    1       21.254  44.426  55.058  0.00  0.00    +0.210 HD
ENDBRANCH  24  25
ENDBRANCH   2  24
TORSDOF 7
ENDMDL
MODEL 3
REMARK VINA RESULT:      -7.2      2.271      4.172
REMARK  Name = 44468219
REMARK                            x       y       z     vdW  Elec       q    Type
REMARK                         _______ _______ _______ _____ _____    ______ ____
ROOT
ATOM      1  O   LIG    1       19.122  40.278  54.144  0.00  0.00    -0.344 OA
ATOM      2  C   LIG    1       19.040  39.392  54.600  0.00  0.00    +0.177 C 
ATOM      3  C   LIG    1       19.850  38.851  54.373  0.00  0.00    +0.178 C 
ATOM      4  C   LIG    1       20.432  39.402  53.775  0.00  0.00    +0.196 C 
ATOM      5  C   LIG    1       19.983  40.284  53.633  0.00  0.00    +0.200 C 
ENDROOT
BRANCH   5   6
ATOM      6  C   LIG    1       19.789  41.214  53.318  0.00  0.00    +0.090 A 
ATOM      7  C   LIG    1       19.495  41.470  52.405  0.00  0.00    +0.029 A 
ATOM      8  C   LIG    1       19.381  42.458  52.383  0.00  0.00    +0.033 A 
ATOM      9  C   LIG    1       19.604  42.814  53.284  0.00  0.00    +0.105 A 
ATOM     10  C   LIG    1       19.611  43.742  53.656  0.00  0.00    +0.144 A 
ATOM     11  N   LIG    1       19.871  43.897  54.609  0.00  0.00    -0.217 NA
ATOM     12  C   LIG    1       20.125  43.124  55.190  0.00  0.00    +0.245 A 
ATOM     13  N   LIG    1       20.119  42.196  54.818  0.00  0.00    -0.154 NA
ATOM     14  N   LIG    1       19.858  42.041  53.865  0.00  0.00    -0.228 N 
BRANCH  10  15
ATOM     15  N   LIG    1       19.357  44.515  53.075  0.00  0.00    -0.341 N 
ATOM     16  H   LIG    1       19.017  44.421  52.564  0.00  0.00    +0.144 HD
ATOM     17  H   LIG    1       19.539  45.089  53.224  0.00  0.00    +0.144 HD
ENDBRANCH  10  15
ENDBRANCH   5   6
BRANCH   4  18
ATOM     18  O   LIG    1       21.310  39.121  53.387  0.00  0.00    -0.385 OA
ATOM     19  H   LIG    1       21.628  39.512  53.024  0.00  0.00    +0.210 HD
ENDBRANCH   4  18
BRANCH   3  20
ATOM     20  O   LIG    1       20.043  37.922  54.687  0.00  0.00    -0.386 OA
ATOM     21  H   LIG    1       20.494  37.592  54.419  0.00  0.00    +0.210 HD
ENDBRANCH   3  20
BRANCH   5  22
ATOM     22  C   LIG    1       20.741  40.577  53.051  0.00  0.00    -0.062 C 
ATOM     23  C   LIG    1       21.499  40.870  52.469  0.00  0.00    +0.007 C 
ENDBRANCH   5  22
BRANCH   2  24
ATOM     24  C   LIG    1       18.282  39.099  55.183  0.00  0.00    +0.190 C 
BRANCH  24  25
ATOM     25  O   LIG    1       17.460  38.704  54.772  0.00  0.00    -0.392 OA
ATOM     26  H   LIG    1       17.265  38.143  54.949  0.00  0.00    +0.210 HD
ENDBRANCH  24  25
ENDBRANCH   2  24
TORSDOF 7
ENDMDL
MODEL 4
REMARK VINA RESULT:      -6.7      2.232      3.987
REMARK  Name = 44468219
REMARK                            x       y       z     vdW  Elec       q    Type
REMARK                         _______ _______ _______ _____ _____    ______ ____
ROOT
ATOM      1  O   LIG    1       20.371  40.573  53.355  0.00  0.00    -0.344 OA
ATOM      2  C   LIG    1       20.064  39.643  53.560  0.00  0.00    +0.177 C 
ATOM      3  C   LIG    1       19.512  39.676  54.393  0.00  0.00    +0.178 C 
ATOM      4  C   LIG    1       19.478  40.626  54.704  0.00  0.00    +0.196 C 
ATOM      5  C   LIG    1       20.008  41.180  54.062  0.00  0.00    +0.200 C 
ENDROOT
BRANCH   5   6
ATOM      6  C   LIG    1       20.448  41.961  53.617  0.00  0.00    +0.090 A 
ATOM      7  C   LIG    1       21.229  42.466  53.966  0.00  0.00    +0.029 A 
ATOM      8  C   LIG    1       21.447  43.186  53.315  0.00  0.00    +0.033 A 
ATOM      9  C   LIG    1       20.801  43.126  52.562  0.00  0.00    +0.105 A 
ATOM     10  C   LIG    1       20.693  43.665  51.726  0.00  0.00    +0.144 A 
ATOM     11  N   LIG    1       19.964  43.443  51.079  0.00  0.00    -0.217 NA
ATOM     12  C   LIG    1       19.343  42.682  51.267  0.00  0.00    +0.245 A 
ATOM     13  N   LIG    1       19.451  42.143  52.103  0.00  0.00    -0.154 NA
ATOM     14  N   LIG    1       20.180  42.365  52.750  0.00  0.00    -0.228 N 
BRANCH  10  15
ATOM     15  N   LIG    1       21.313  44.426  51.538  0.00  0.00    -0.341 N 
ATOM     16  H   LIG    1       21.115  44.914  51.212  0.00  0.00    +0.144 HD
ATOM     17  H   LIG    1       21.897  44.409  51.748  0.00  0.00    +0.144 HD
ENDBRANCH  10  15
ENDBRANCH   5   6
BRANCH   4  18
ATOM     18  O   LIG    1       18.997  40.963  55.513  0.00  0.00    -0.385 OA
ATOM     19  H   LIG    1       19.190  40.797  56.079  0.00  0.00    +0.210 HD
ENDBRANCH   4  18
BRANCH   3  20
ATOM     20  O   LIG    1       19.073  38.896  54.837  0.00  0.00    -0.386 OA
ATOM     21  H   LIG    1       18.994  38.894  55.453  0.00  0.00    +0.210 HD
ENDBRANCH   3  20
BRANCH   5  22
ATOM     22  C   LIG    1       19.799  41.999  54.597  0.00  0.00    -0.062 C 
ATOM     23  C   LIG    1       19.590  42.818  55.132  0.00  0.00    +0.007 C 
ENDBRANCH   5  22
BRANCH   2  24
ATOM     24  C   LIG    1       20.273  38.824  53.025  0.00  0.00    +0.190 C 
BRANCH  24  25
ATOM     25  O   LIG    1       19.939  38.742  52.087  0.00  0.00    -0.392 OA
ATOM     26  H   LIG    1       19.584  38.260  51.926  0.00  0.00    +0.210 HD
ENDBRANCH  24  25
ENDBRANCH   2  24
TORSDOF 7
ENDMDL
MODEL 5
REMARK VINA RESULT:      -6.4     12.150     13.002
REMARK  Name = 44468219
REMARK                            x       y       z     vdW  Elec       q    Type
REMARK                         _______ _______ _______ _____ _____    ______ ____
ROOT
ATOM      1  O   LIG    1       18.981  31.937  62.111  0.00  0.00    -0.344 OA
ATOM      2  C   LIG    1       17.995  31.781  62.061  0.00  0.00    +0.177 C 
ATOM      3  C   LIG    1       17.545  32.457  62.646  0.00  0.00    +0.178 C 
ATOM      4  C   LIG    1       18.253  33.029  63.058  0.00  0.00    +0.196 C 
ATOM      5  C   LIG    1       19.141  32.709  62.728  0.00  0.00    +0.200 C 
ENDROOT
BRANCH   5   6
ATOM      6  C   LIG    1       20.127  32.622  62.581  0.00  0.00    +0.090 A 
ATOM      7  C   LIG    1       20.689  33.225  62.027  0.00  0.00    +0.029 A 
ATOM      8  C   LIG    1       21.626  32.895  62.066  0.00  0.00    +0.033 A 
ATOM      9  C   LIG    1       21.646  32.087  62.644  0.00  0.00    +0.105 A 
ATOM     10  C   LIG    1       22.389  31.480  62.924  0.00  0.00    +0.144 A 
ATOM     11  N   LIG    1       22.201  30.703  63.525  0.00  0.00    -0.217 NA
ATOM     12  C   LIG    1       21.269  30.533  63.845  0.00  0.00    +0.245 A 
ATOM     13  N   LIG    1       20.525  31.140  63.565  0.00  0.00    -0.154 NA
ATOM     14  N   LIG    1       20.714  31.917  62.965  0.00  0.00    -0.228 N 
BRANCH  10  15
ATOM     15  N   LIG    1       23.321  31.650  62.604  0.00  0.00    -0.341 N 
ATOM     16  H   LIG    1       23.805  31.478  62.952  0.00  0.00    +0.144 HD
ATOM     17  H   LIG    1       23.415  31.928  62.057  0.00  0.00    +0.144 HD
ENDBRANCH  10  15
ENDBRANCH   5   6
BRANCH   4  18
ATOM     18  O   LIG    1       18.101  33.789  63.689  0.00  0.00    -0.385 OA
ATOM     19  H   LIG    1       17.838  34.314  63.486  0.00  0.00    +0.210 HD
ENDBRANCH   4  18
BRANCH   3  20
ATOM     20  O   LIG    1       16.560  32.543  62.792  0.00  0.00    -0.386 OA
ATOM     21  H   LIG    1       16.170  32.153  62.508  0.00  0.00    +0.210 HD
ENDBRANCH   3  20
BRANCH   5  22
ATOM     22  C   LIG    1       19.597  33.415  63.269  0.00  0.00    -0.062 C 
ATOM     23  C   LIG    1       20.053  34.122  63.810  0.00  0.00    +0.007 C 
ENDBRANCH   5  22
BRANCH   2  24
ATOM     24  C   LIG    1       17.539  31.075  61.520  0.00  0.00    +0.190 C 
BRANCH  24  25
ATOM     25  O   LIG    1       17.400  31.208  60.539  0.00  0.00    -0.392 OA
ATOM     26  H   LIG    1       17.832  31.018  60.136  0.00  0.00    +0.210 HD
ENDBRANCH  24  25
ENDBRANCH   2  24
TORSDOF 7
ENDMDL
MODEL 6
REMARK VINA RESULT:      -6.3     14.262     15.855
REMARK  Name = 44468219
REMARK                            x       y       z     vdW  Elec       q    Type
REMARK                         _______ _______ _______ _____ _____    ______ ____
ROOT
ATOM      1  O   LIG    1       24.770  29.952  63.211  0.00  0.00    -0.344 OA
ATOM      2  C   LIG    1       23.771  29.918  63.176  0.00  0.00    +0.177 C 
ATOM      3  C   LIG    1       23.445  30.789  62.808  0.00  0.00    +0.178 C 
ATOM      4  C   LIG    1       24.242  31.361  62.616  0.00  0.00    +0.196 C 
ATOM      5  C   LIG    1       25.061  30.844  62.865  0.00  0.00    +0.200 C 
ENDROOT
BRANCH   5   6
ATOM      6  C   LIG    1       26.017  30.590  63.014  0.00  0.00    +0.090 A 
ATOM      7  C   LIG    1       26.662  30.309  62.312  0.00  0.00    +0.029 A 
ATOM      8  C   LIG    1       27.533  30.118  62.752  0.00  0.00    +0.033 A 
ATOM      9  C   LIG    1       27.429  30.281  63.727  0.00  0.00    +0.105 A 
ATOM     10  C   LIG    1       28.067  30.202  64.492  0.00  0.00    +0.144 A 
ATOM     11  N   LIG    1       27.763  30.416  65.421  0.00  0.00    -0.217 NA
ATOM     12  C   LIG    1       26.821  30.709  65.584  0.00  0.00    +0.245 A 
ATOM     13  N   LIG    1       26.183  30.788  64.818  0.00  0.00    -0.154 NA
ATOM     14  N   LIG    1       26.487  30.574  63.890  0.00  0.00    -0.228 N 
BRANCH  10  15
ATOM     15  N   LIG    1       29.009  29.909  64.330  0.00  0.00    -0.341 N 
ATOM     16  H   LIG    1       29.226  29.870  63.750  0.00  0.00    +0.144 HD
ATOM     17  H   LIG    1       29.377  29.766  64.808  0.00  0.00    +0.144 HD
ENDBRANCH  10  15
ENDBRANCH   5   6
BRANCH   4  18
ATOM     18  O   LIG    1       24.224  32.288  62.241  0.00  0.00    -0.385 OA
ATOM     19  H   LIG    1       24.059  32.380  61.650  0.00  0.00    +0.210 HD
ENDBRANCH   4  18
BRANCH   3  20
ATOM     20  O   LIG    1       22.490  31.043  62.659  0.00  0.00    -0.386 OA
ATOM     21  H   LIG    1       22.036  30.685  62.884  0.00  0.00    +0.210 HD
ENDBRANCH   3  20
BRANCH   5  22
ATOM     22  C   LIG    1       25.633  31.614  62.582  0.00  0.00    -0.062 C 
ATOM     23  C   LIG    1       26.205  32.384  62.299  0.00  0.00    +0.007 C 
ENDBRANCH   5  22
BRANCH   2  24
ATOM     24  C   LIG    1       23.199  29.148  63.458  0.00  0.00    +0.190 C 
BRANCH  24  25
ATOM     25  O   LIG    1       23.061  28.959  64.430  0.00  0.00    -0.392 OA
ATOM     26  H   LIG    1       22.583  28.608  64.613  0.00  0.00    +0.210 HD
ENDBRANCH  24  25
ENDBRANCH   2  24
TORSDOF 7
ENDMDL
MODEL 7
REMARK VINA RESULT:      -6.1     14.309     15.939
REMARK  Name = 44468219
REMARK                            x       y       z     vdW  Elec       q    Type
REMARK                         _______ _______ _______ _____ _____    ______ ____
ROOT
ATOM      1  O   LIG    1       26.966  31.896  64.360  0.00  0.00    -0.344 OA
ATOM      2  C   LIG    1       27.770  31.950  64.953  0.00  0.00    +0.177 C 
ATOM      3  C   LIG    1       28.337  31.145  64.779  0.00  0.00    +0.178 C 
ATOM      4  C   LIG    1       27.884  30.593  64.079  0.00  0.00    +0.196 C 
ATOM      5  C   LIG    1       27.037  31.057  63.819  0.00  0.00    +0.200 C 
ENDROOT
BRANCH   5   6
ATOM      6  C   LIG    1       26.169  31.273  63.371  0.00  0.00    +0.090 A 
ATOM      7  C   LIG    1       26.062  31.640  62.454  0.00  0.00    +0.029 A 
ATOM      8  C   LIG    1       25.090  31.753  62.278  0.00  0.00    +0.033 A 
ATOM      9  C   LIG    1       24.593  31.455  63.086  0.00  0.00    +0.105 A 
ATOM     10  C   LIG    1       23.617  31.415  63.297  0.00  0.00    +0.144 A 
ATOM     11  N   LIG    1       23.311  31.077  64.187  0.00  0.00    -0.217 NA
ATOM     12  C   LIG    1       23.981  30.779  64.866  0.00  0.00    +0.245 A 
ATOM     13  N   LIG    1       24.958  30.819  64.655  0.00  0.00    -0.154 NA
ATOM     14  N   LIG    1       25.264  31.157  63.766  0.00  0.00    -0.228 N 
BRANCH  10  15
ATOM     15  N   LIG    1       22.946  31.713  62.618  0.00  0.00    -0.341 N 
ATOM     16  H   LIG    1       22.356  31.806  62.785  0.00  0.00    +0.144 HD
ATOM     17  H   LIG    1       23.120  31.806  62.030  0.00  0.00    +0.144 HD
ENDBRANCH  10  15
ENDBRANCH   5   6
BRANCH   4  18
ATOM     18  O   LIG    1       28.219  29.729  63.703  0.00  0.00    -0.385 OA
ATOM     19  H   LIG    1       27.914  29.455  63.238  0.00  0.00    +0.210 HD
ENDBRANCH   4  18
BRANCH   3  20
ATOM     20  O   LIG    1       29.204  30.930  65.227  0.00  0.00    -0.386 OA
ATOM     21  H   LIG    1       29.604  31.384  65.361  0.00  0.00    +0.210 HD
ENDBRANCH   3  20
BRANCH   5  22
ATOM     22  C   LIG    1       26.836  30.326  63.167  0.00  0.00    -0.062 C 
ATOM     23  C   LIG    1       26.635  29.595  62.515  0.00  0.00    +0.007 C 
ENDBRANCH   5  22
BRANCH   2  24
ATOM     24  C   LIG    1       27.970  32.681  65.604  0.00  0.00    +0.190 C 
BRANCH  24  25
ATOM     25  O   LIG    1       27.912  33.637  65.317  0.00  0.00    -0.392 OA
ATOM     26  H   LIG    1       28.091  33.800  64.746  0.00  0.00    +0.210 HD
ENDBRANCH  24  25
ENDBRANCH   2  24
TORSDOF 7
ENDMDL
MODEL 8
REMARK VINA RESULT:      -6.1     12.402     14.044
REMARK  Name = 44468219
REMARK                            x       y       z     vdW  Elec       q    Type
REMARK                         _______ _______ _______ _____ _____    ______ ____
ROOT
ATOM      1  O   LIG    1       22.088  31.903  62.596  0.00  0.00    -0.344 OA
ATOM      2  C   LIG    1       21.412  32.628  62.469  0.00  0.00    +0.177 C 
ATOM      3  C   LIG    1       21.064  32.887  63.371  0.00  0.00    +0.178 C 
ATOM      4  C   LIG    1       21.525  32.322  64.054  0.00  0.00    +0.196 C 
ATOM      5  C   LIG    1       22.158  31.713  63.576  0.00  0.00    +0.200 C 
ENDROOT
BRANCH   5   6
ATOM      6  C   LIG    1       22.847  31.011  63.391  0.00  0.00    +0.090 A 
ATOM      7  C   LIG    1       22.712  30.029  63.461  0.00  0.00    +0.029 A 
ATOM      8  C   LIG    1       23.566  29.582  63.218  0.00  0.00    +0.033 A 
ATOM      9  C   LIG    1       24.231  30.287  62.998  0.00  0.00    +0.105 A 
ATOM     10  C   LIG    1       25.189  30.241  62.712  0.00  0.00    +0.144 A 
ATOM     11  N   LIG    1       25.699  31.082  62.534  0.00  0.00    -0.217 NA
ATOM     12  C   LIG    1       25.252  31.970  62.641  0.00  0.00    +0.245 A 
ATOM     13  N   LIG    1       24.295  32.017  62.926  0.00  0.00    -0.154 NA
ATOM     14  N   LIG    1       23.784  31.175  63.105  0.00  0.00    -0.228 N 
BRANCH  10  15
ATOM     15  N   LIG    1       25.636  29.352  62.605  0.00  0.00    -0.341 N 
ATOM     16  H   LIG    1       26.087  29.183  62.996  0.00  0.00    +0.144 HD
ATOM     17  H   LIG    1       25.462  28.971  62.148  0.00  0.00    +0.144 HD
ENDBRANCH  10  15
ENDBRANCH   5   6
BRANCH   4  18
ATOM     18  O   LIG    1       21.380  32.358  65.043  0.00  0.00    -0.385 OA
ATOM     19  H   LIG    1       20.965  31.981  65.309  0.00  0.00    +0.210 HD
ENDBRANCH   4  18
BRANCH   3  20
ATOM     20  O   LIG    1       20.376  33.588  63.555  0.00  0.00    -0.386 OA
ATOM     21  H   LIG    1       19.802  33.423  63.722  0.00  0.00    +0.210 HD
ENDBRANCH   3  20
BRANCH   5  22
ATOM     22  C   LIG    1       22.438  31.316  64.450  0.00  0.00    -0.062 C 
ATOM     23  C   LIG    1       22.717  30.920  65.325  0.00  0.00    +0.007 C 
ENDBRANCH   5  22
BRANCH   2  24
ATOM     24  C   LIG    1       21.132  33.025  61.595  0.00  0.00    +0.190 C 
BRANCH  24  25
ATOM     25  O   LIG    1       21.824  33.329  60.940  0.00  0.00    -0.392 OA
ATOM     26  H   LIG    1       22.232  33.767  61.102  0.00  0.00    +0.210 HD
ENDBRANCH  24  25
ENDBRANCH   2  24
TORSDOF 7
ENDMDL
MODEL 9
REMARK VINA RESULT:      -5.9     11.724     13.060
REMARK  Name = 44468219
REMARK                            x       y       z     vdW  Elec       q    Type
REMARK                         _______ _______ _______ _____ _____    ______ ____
ROOT
ATOM      1  O   LIG    1       19.498  32.377  62.115  0.00  0.00    -0.344 OA
ATOM      2  C   LIG    1       20.440  32.582  62.378  0.00  0.00    +0.177 C 
ATOM      3  C   LIG    1       20.718  31.919  63.074  0.00  0.00    +0.178 C 
ATOM      4  C   LIG    1       19.948  31.305  63.240  0.00  0.00    +0.196 C 
ATOM      5  C   LIG    1       19.193  31.587  62.647  0.00  0.00    +0.200 C 
ENDROOT
BRANCH   5   6
ATOM      6  C   LIG    1       18.301  31.628  62.197  0.00  0.00    +0.090 A 
ATOM      7  C   LIG    1       17.990  31.033  61.465  0.00  0.00    +0.029 A 
ATOM      8  C   LIG    1       17.066  31.305  61.217  0.00  0.00    +0.033 A 
ATOM      9  C   LIG    1       16.804  32.070  61.796  0.00  0.00    +0.105 A 
ATOM     10  C   LIG    1       15.967  32.613  61.851  0.00  0.00    +0.144 A 
ATOM     11  N   LIG    1       15.896  33.357  62.516  0.00  0.00    -0.217 NA
ATOM     12  C   LIG    1       16.663  33.557  63.125  0.00  0.00    +0.245 A 
ATOM     13  N   LIG    1       17.501  33.014  63.070  0.00  0.00    -0.154 NA
ATOM     14  N   LIG    1       17.571  32.270  62.405  0.00  0.00    -0.228 N 
BRANCH  10  15
ATOM     15  N   LIG    1       15.199  32.413  61.242  0.00  0.00    -0.341 N 
ATOM     16  H   LIG    1       14.875  32.877  60.989  0.00  0.00    +0.144 HD
ATOM     17  H   LIG    1       15.048  31.825  61.117  0.00  0.00    +0.144 HD
ENDBRANCH  10  15
ENDBRANCH   5   6
BRANCH   4  18
ATOM     18  O   LIG    1       19.934  30.541  63.885  0.00  0.00    -0.385 OA
ATOM     19  H   LIG    1       20.045  29.964  63.685  0.00  0.00    +0.210 HD
ENDBRANCH   4  18
BRANCH   3  20
ATOM     20  O   LIG    1       21.610  31.879  63.523  0.00  0.00    -0.386 OA
ATOM     21  H   LIG    1       21.704  32.187  64.053  0.00  0.00    +0.210 HD
ENDBRANCH   3  20
BRANCH   5  22
ATOM     22  C   LIG    1       18.628  30.848  63.015  0.00  0.00    -0.062 C 
ATOM     23  C   LIG    1       18.063  30.110  63.382  0.00  0.00    +0.007 C 
ENDBRANCH   5  22
BRANCH   2  24
ATOM     24  C   LIG    1       21.006  33.321  62.011  0.00  0.00    +0.190 C 
BRANCH  24  25
ATOM     25  O   LIG    1       21.436  33.222  61.114  0.00  0.00    -0.392 OA
ATOM     26  H   LIG    1       22.021  33.407  61.029  0.00  0.00    +0.210 HD
ENDBRANCH  24  25
ENDBRANCH   2  24
TORSDOF 7
ENDMDL
