MODEL 1
REMARK VINA RESULT:      -6.2      0.000      0.000
REMARK  Name = 44468356
REMARK                            x       y       z     vdW  Elec       q    Type
REMARK                         _______ _______ _______ _____ _____    ______ ____
ROOT
ATOM      1  C   LIG    1       18.562  31.800  62.373  0.00  0.00    +0.178 C 
ATOM      2  C   LIG    1       18.049  31.532  61.557  0.00  0.00    +0.181 C 
ATOM      3  C   LIG    1       17.077  31.685  61.737  0.00  0.00    +0.139 C 
ATOM      4  C   LIG    1       16.085  31.728  61.626  0.00  0.00    +0.048 C 
ATOM      5  C   LIG    1       16.990  32.048  62.665  0.00  0.00    +0.228 C 
ATOM      6  O   LIG    1       17.907  32.119  63.058  0.00  0.00    -0.343 OA
ENDROOT
BRANCH   5   7
ATOM      7  C   LIG    1       15.996  32.091  62.553  0.00  0.00    +0.092 A 
ATOM      8  C   LIG    1       15.487  32.841  62.146  0.00  0.00    +0.029 A 
ATOM      9  C   LIG    1       14.521  32.607  62.170  0.00  0.00    +0.033 A 
ATOM     10  C   LIG    1       14.430  31.712  62.592  0.00  0.00    +0.105 A 
ATOM     11  C   LIG    1       13.633  31.142  62.793  0.00  0.00    +0.144 A 
ATOM     12  N   LIG    1       13.753  30.252  63.233  0.00  0.00    -0.217 NA
ATOM     13  C   LIG    1       14.669  29.931  63.471  0.00  0.00    +0.245 A 
ATOM     14  N   LIG    1       15.466  30.501  63.270  0.00  0.00    -0.154 NA
ATOM     15  N   LIG    1       15.347  31.391  62.831  0.00  0.00    -0.228 N 
BRANCH  11  16
ATOM     16  N   LIG    1       12.716  31.463  62.555  0.00  0.00    -0.341 N 
ATOM     17  H   LIG    1       12.267  31.054  62.434  0.00  0.00    +0.144 HD
ATOM     18  H   LIG    1       12.598  32.071  62.528  0.00  0.00    +0.144 HD
ENDBRANCH  11  16
ENDBRANCH   5   7
BRANCH   2  19
ATOM     19  O   LIG    1       18.440  31.173  60.709  0.00  0.00    -0.386 OA
ATOM     20  H   LIG    1       19.055  31.159  60.633  0.00  0.00    +0.210 HD
ENDBRANCH   2  19
BRANCH   3  21
ATOM     21  O   LIG    1       16.855  31.353  60.820  0.00  0.00    -0.382 OA
ATOM     22  H   LIG    1       16.975  31.706  60.325  0.00  0.00    +0.210 HD
ENDBRANCH   3  21
BRANCH   5  23
ATOM     23  C   LIG    1       16.598  32.406  63.513  0.00  0.00    +0.107 C 
ATOM     24  N   LIG    1       16.206  32.764  64.361  0.00  0.00    -0.193 NA
ENDBRANCH   5  23
BRANCH   1  25
ATOM     25  C   LIG    1       19.554  31.757  62.484  0.00  0.00    +0.206 C 
BRANCH  25  26
ATOM     26  O   LIG    1       20.061  32.573  62.763  0.00  0.00    -0.284 OA
BRANCH  26  27
ATOM     27  P   LIG    1       21.055  32.531  62.873  0.00  0.00    +0.483 P 
ATOM     28  O   LIG    1       21.159  32.412  61.885  0.00  0.00    -0.227 OA
BRANCH  27  29
ATOM     29  O   LIG    1       22.047  32.489  62.982  0.00  0.00    -0.248 OA
BRANCH  29  30
ATOM     30  C   LIG    1       22.545  31.662  62.717  0.00  0.00    +0.413 C 
BRANCH  30  31
ATOM     31  O   LIG    1       23.541  31.683  62.634  0.00  0.00    -0.406 OA
BRANCH  31  32
ATOM     32  C   LIG    1       24.085  30.903  62.944  0.00  0.00    +0.512 C 
ATOM     33  O   LIG    1       23.705  29.979  62.898  0.00  0.00    -0.203 OA
BRANCH  32  34
ATOM     34  O   LIG    1       25.009  31.046  63.299  0.00  0.00    -0.431 OA
BRANCH  34  35
ATOM     35  C   LIG    1       25.802  30.814  62.737  0.00  0.00    +0.174 C 
ATOM     36  C   LIG    1       26.144  29.875  62.718  0.00  0.00    +0.052 C 
ATOM     37  C   LIG    1       26.255  31.522  62.193  0.00  0.00    +0.052 C 
ENDBRANCH  34  35
ENDBRANCH  32  34
ENDBRANCH  31  32
ENDBRANCH  30  31
ENDBRANCH  29  30
ENDBRANCH  27  29
BRANCH  27  38
ATOM     38  O   LIG    1       20.951  32.650  63.860  0.00  0.00    -0.248 OA
BRANCH  38  39
ATOM     39  C   LIG    1       20.982  33.565  64.259  0.00  0.00    +0.413 C 
BRANCH  39  40
ATOM     40  O   LIG    1       20.545  33.742  65.142  0.00  0.00    -0.406 OA
BRANCH  40  41
ATOM     41  C   LIG    1       20.071  34.608  65.300  0.00  0.00    +0.512 C 
ATOM     42  O   LIG    1       20.590  35.461  65.339  0.00  0.00    -0.203 OA
BRANCH  41  43
ATOM     43  O   LIG    1       19.078  34.620  65.420  0.00  0.00    -0.431 OA
BRANCH  43  44
ATOM     44  C   LIG    1       18.560  35.449  65.213  0.00  0.00    +0.174 C 
ATOM     45  C   LIG    1       18.341  35.678  64.264  0.00  0.00    +0.052 C 
ATOM     46  C   LIG    1       18.260  36.049  65.953  0.00  0.00    +0.052 C 
ENDBRANCH  43  44
ENDBRANCH  41  43
ENDBRANCH  40  41
ENDBRANCH  39  40
ENDBRANCH  38  39
ENDBRANCH  27  38
ENDBRANCH  26  27
ENDBRANCH  25  26
ENDBRANCH   1  25
TORSDOF 20
ENDMDL
MODEL 2
REMARK VINA RESULT:      -5.9      4.469      8.622
REMARK  Name = 44468356
REMARK                            x       y       z     vdW  Elec       q    Type
REMARK                         _______ _______ _______ _____ _____    ______ ____
ROOT
ATOM      1  C   LIG    1       23.583  31.255  62.936  0.00  0.00    +0.178 C 
ATOM      2  C   LIG    1       23.874  30.299  62.968  0.00  0.00    +0.181 C 
ATOM      3  C   LIG    1       24.874  30.280  62.999  0.00  0.00    +0.139 C 
ATOM      4  C   LIG    1       25.818  29.954  63.036  0.00  0.00    +0.048 C 
ATOM      5  C   LIG    1       25.200  31.225  62.985  0.00  0.00    +0.228 C 
ATOM      6  O   LIG    1       24.403  31.827  62.946  0.00  0.00    -0.343 OA
ENDROOT
BRANCH   5   7
ATOM      7  C   LIG    1       26.145  30.898  63.022  0.00  0.00    +0.092 A 
ATOM      8  C   LIG    1       26.707  30.649  62.240  0.00  0.00    +0.029 A 
ATOM      9  C   LIG    1       27.596  30.362  62.579  0.00  0.00    +0.033 A 
ATOM     10  C   LIG    1       27.587  30.433  63.570  0.00  0.00    +0.105 A 
ATOM     11  C   LIG    1       28.282  30.239  64.264  0.00  0.00    +0.144 A 
ATOM     12  N   LIG    1       28.074  30.377  65.232  0.00  0.00    -0.217 NA
ATOM     13  C   LIG    1       27.172  30.710  65.507  0.00  0.00    +0.245 A 
ATOM     14  N   LIG    1       26.478  30.905  64.814  0.00  0.00    -0.154 NA
ATOM     15  N   LIG    1       26.686  30.766  63.846  0.00  0.00    -0.228 N 
BRANCH  11  16
ATOM     16  N   LIG    1       29.183  29.905  63.988  0.00  0.00    -0.341 N 
ATOM     17  H   LIG    1       29.653  30.304  63.918  0.00  0.00    +0.144 HD
ATOM     18  H   LIG    1       29.273  29.300  63.888  0.00  0.00    +0.144 HD
ENDBRANCH  11  16
ENDBRANCH   5   7
BRANCH   2  19
ATOM     19  O   LIG    1       23.271  29.501  62.970  0.00  0.00    -0.386 OA
ATOM     20  H   LIG    1       22.919  29.379  63.466  0.00  0.00    +0.210 HD
ENDBRANCH   2  19
BRANCH   3  21
ATOM     21  O   LIG    1       24.854  29.280  63.023  0.00  0.00    -0.382 OA
ATOM     22  H   LIG    1       25.170  28.954  62.601  0.00  0.00    +0.210 HD
ENDBRANCH   3  21
BRANCH   5  23
ATOM     23  C   LIG    1       25.804  32.023  62.984  0.00  0.00    +0.107 C 
ATOM     24  N   LIG    1       26.408  32.820  62.982  0.00  0.00    -0.193 NA
ENDBRANCH   5  23
BRANCH   1  25
ATOM     25  C   LIG    1       22.639  31.581  62.899  0.00  0.00    +0.206 C 
BRANCH  25  26
ATOM     26  O   LIG    1       22.089  31.612  63.734  0.00  0.00    -0.284 OA
BRANCH  26  27
ATOM     27  P   LIG    1       21.189  32.049  63.724  0.00  0.00    +0.483 P 
ATOM     28  O   LIG    1       21.573  32.851  64.182  0.00  0.00    -0.227 OA
BRANCH  27  29
ATOM     29  O   LIG    1       20.290  32.487  63.714  0.00  0.00    -0.248 OA
BRANCH  29  30
ATOM     30  C   LIG    1       20.177  33.407  64.091  0.00  0.00    +0.413 C 
BRANCH  30  31
ATOM     31  O   LIG    1       19.343  33.644  64.588  0.00  0.00    -0.406 OA
BRANCH  31  32
ATOM     32  C   LIG    1       18.683  34.276  64.181  0.00  0.00    +0.512 C 
ATOM     33  O   LIG    1       18.978  34.928  63.482  0.00  0.00    -0.203 OA
BRANCH  32  34
ATOM     34  O   LIG    1       17.726  34.257  64.473  0.00  0.00    -0.431 OA
BRANCH  34  35
ATOM     35  C   LIG    1       17.113  33.546  64.130  0.00  0.00    +0.174 C 
ATOM     36  C   LIG    1       16.807  33.566  63.178  0.00  0.00    +0.052 C 
ATOM     37  C   LIG    1       16.805  32.814  64.738  0.00  0.00    +0.052 C 
ENDBRANCH  34  35
ENDBRANCH  32  34
ENDBRANCH  31  32
ENDBRANCH  30  31
ENDBRANCH  29  30
ENDBRANCH  27  29
BRANCH  27  38
ATOM     38  O   LIG    1       20.805  31.248  63.266  0.00  0.00    -0.248 OA
BRANCH  38  39
ATOM     39  C   LIG    1       20.132  30.678  63.737  0.00  0.00    +0.413 C 
BRANCH  39  40
ATOM     40  O   LIG    1       19.634  29.972  63.232  0.00  0.00    -0.406 OA
BRANCH  40  41
ATOM     41  C   LIG    1       18.830  29.539  63.641  0.00  0.00    +0.512 C 
ATOM     42  O   LIG    1       18.615  29.693  64.604  0.00  0.00    -0.203 OA
BRANCH  41  43
ATOM     43  O   LIG    1       18.242  28.951  63.084  0.00  0.00    -0.431 OA
BRANCH  43  44
ATOM     44  C   LIG    1       17.412  29.324  62.670  0.00  0.00    +0.174 C 
ATOM     45  C   LIG    1       16.599  29.477  63.232  0.00  0.00    +0.052 C 
ATOM     46  C   LIG    1       17.394  29.542  61.695  0.00  0.00    +0.052 C 
ENDBRANCH  43  44
ENDBRANCH  41  43
ENDBRANCH  40  41
ENDBRANCH  39  40
ENDBRANCH  38  39
ENDBRANCH  27  38
ENDBRANCH  26  27
ENDBRANCH  25  26
ENDBRANCH   1  25
TORSDOF 20
ENDMDL
MODEL 3
REMARK VINA RESULT:      -5.8     11.455     13.986
REMARK  Name = 44468356
REMARK                            x       y       z     vdW  Elec       q    Type
REMARK                         _______ _______ _______ _____ _____    ______ ____
ROOT
ATOM      1  C   LIG    1       16.255  31.446  50.450  0.00  0.00    +0.178 C 
ATOM      2  C   LIG    1       17.239  31.338  50.597  0.00  0.00    +0.181 C 
ATOM      3  C   LIG    1       17.697  31.444  49.714  0.00  0.00    +0.139 C 
ATOM      4  C   LIG    1       18.406  31.499  49.011  0.00  0.00    +0.048 C 
ATOM      5  C   LIG    1       16.996  31.616  49.022  0.00  0.00    +0.228 C 
ATOM      6  O   LIG    1       16.106  31.617  49.476  0.00  0.00    -0.343 OA
ENDROOT
BRANCH   5   7
ATOM      7  C   LIG    1       17.706  31.671  48.318  0.00  0.00    +0.092 A 
ATOM      8  C   LIG    1       18.238  32.479  48.089  0.00  0.00    +0.029 A 
ATOM      9  C   LIG    1       18.864  32.237  47.356  0.00  0.00    +0.033 A 
ATOM     10  C   LIG    1       18.721  31.280  47.130  0.00  0.00    +0.105 A 
ATOM     11  C   LIG    1       19.151  30.678  46.457  0.00  0.00    +0.144 A 
ATOM     12  N   LIG    1       18.861  29.724  46.383  0.00  0.00    -0.217 NA
ATOM     13  C   LIG    1       18.141  29.372  46.981  0.00  0.00    +0.245 A 
ATOM     14  N   LIG    1       17.711  29.974  47.654  0.00  0.00    -0.154 NA
ATOM     15  N   LIG    1       18.002  30.928  47.728  0.00  0.00    -0.228 N 
BRANCH  11  16
ATOM     16  N   LIG    1       19.871  31.029  45.858  0.00  0.00    -0.341 N 
ATOM     17  H   LIG    1       20.025  30.720  45.344  0.00  0.00    +0.144 HD
ATOM     18  H   LIG    1       20.163  31.557  46.002  0.00  0.00    +0.144 HD
ENDBRANCH  11  16
ENDBRANCH   5   7
BRANCH   2  19
ATOM     19  O   LIG    1       17.686  31.158  51.473  0.00  0.00    -0.386 OA
ATOM     20  H   LIG    1       18.154  31.519  51.663  0.00  0.00    +0.210 HD
ENDBRANCH   2  19
BRANCH   3  21
ATOM     21  O   LIG    1       18.582  31.297  50.156  0.00  0.00    -0.382 OA
ATOM     22  H   LIG    1       18.637  30.875  50.608  0.00  0.00    +0.210 HD
ENDBRANCH   3  21
BRANCH   5  23
ATOM     23  C   LIG    1       16.550  31.797  48.145  0.00  0.00    +0.107 C 
ATOM     24  N   LIG    1       16.103  31.978  47.269  0.00  0.00    -0.193 NA
ENDBRANCH   5  23
BRANCH   1  25
ATOM     25  C   LIG    1       15.547  31.391  51.153  0.00  0.00    +0.206 C 
BRANCH  25  26
ATOM     26  O   LIG    1       14.992  32.195  51.366  0.00  0.00    -0.284 OA
BRANCH  26  27
ATOM     27  P   LIG    1       14.291  32.144  52.078  0.00  0.00    +0.483 P 
ATOM     28  O   LIG    1       13.954  31.287  51.686  0.00  0.00    -0.227 OA
BRANCH  27  29
ATOM     29  O   LIG    1       13.590  32.092  52.789  0.00  0.00    -0.248 OA
BRANCH  29  30
ATOM     30  C   LIG    1       13.451  31.239  53.294  0.00  0.00    +0.413 C 
BRANCH  30  31
ATOM     31  O   LIG    1       13.212  31.265  54.264  0.00  0.00    -0.406 OA
BRANCH  31  32
ATOM     32  C   LIG    1       13.144  30.414  54.785  0.00  0.00    +0.512 C 
ATOM     33  O   LIG    1       12.277  29.917  54.821  0.00  0.00    -0.203 OA
BRANCH  32  34
ATOM     34  O   LIG    1       13.944  30.059  55.270  0.00  0.00    -0.431 OA
BRANCH  34  35
ATOM     35  C   LIG    1       13.942  30.009  56.268  0.00  0.00    +0.174 C 
ATOM     36  C   LIG    1       14.186  30.813  56.810  0.00  0.00    +0.052 C 
ATOM     37  C   LIG    1       13.694  29.154  56.725  0.00  0.00    +0.052 C 
ENDBRANCH  34  35
ENDBRANCH  32  34
ENDBRANCH  31  32
ENDBRANCH  30  31
ENDBRANCH  29  30
ENDBRANCH  27  29
BRANCH  27  38
ATOM     38  O   LIG    1       14.627  32.999  52.471  0.00  0.00    -0.248 OA
BRANCH  38  39
ATOM     39  C   LIG    1       14.177  33.863  52.247  0.00  0.00    +0.413 C 
BRANCH  39  40
ATOM     40  O   LIG    1       14.400  34.692  52.761  0.00  0.00    -0.406 OA
BRANCH  40  41
ATOM     41  C   LIG    1       13.895  35.537  52.590  0.00  0.00    +0.512 C 
ATOM     42  O   LIG    1       13.012  35.507  52.122  0.00  0.00    -0.203 OA
BRANCH  41  43
ATOM     43  O   LIG    1       14.273  36.415  52.888  0.00  0.00    -0.431 OA
BRANCH  43  44
ATOM     44  C   LIG    1       13.709  37.049  53.415  0.00  0.00    +0.174 C 
ATOM     45  C   LIG    1       13.161  37.741  52.945  0.00  0.00    +0.052 C 
ATOM     46  C   LIG    1       13.691  36.992  54.413  0.00  0.00    +0.052 C 
ENDBRANCH  43  44
ENDBRANCH  41  43
ENDBRANCH  40  41
ENDBRANCH  39  40
ENDBRANCH  38  39
ENDBRANCH  27  38
ENDBRANCH  26  27
ENDBRANCH  25  26
ENDBRANCH   1  25
TORSDOF 20
ENDMDL
MODEL 4
REMARK VINA RESULT:      -5.7      3.362      7.335
REMARK  Name = 44468356
REMARK                            x       y       z     vdW  Elec       q    Type
REMARK                         _______ _______ _______ _____ _____    ______ ____
ROOT
ATOM      1  C   LIG    1       21.429  32.018  62.666  0.00  0.00    +0.178 C 
ATOM      2  C   LIG    1       22.282  32.318  62.236  0.00  0.00    +0.181 C 
ATOM      3  C   LIG    1       23.030  31.779  62.624  0.00  0.00    +0.139 C 
ATOM      4  C   LIG    1       23.942  31.418  62.814  0.00  0.00    +0.048 C 
ATOM      5  C   LIG    1       22.639  31.146  63.293  0.00  0.00    +0.228 C 
ATOM      6  O   LIG    1       21.650  31.294  63.318  0.00  0.00    -0.343 OA
ENDROOT
BRANCH   5   7
ATOM      7  C   LIG    1       23.552  30.784  63.483  0.00  0.00    +0.092 A 
ATOM      8  C   LIG    1       24.010  30.060  62.978  0.00  0.00    +0.029 A 
ATOM      9  C   LIG    1       24.902  29.913  63.391  0.00  0.00    +0.033 A 
ATOM     10  C   LIG    1       24.999  30.545  64.152  0.00  0.00    +0.105 A 
ATOM     11  C   LIG    1       25.741  30.703  64.804  0.00  0.00    +0.144 A 
ATOM     12  N   LIG    1       25.644  31.402  65.512  0.00  0.00    -0.217 NA
ATOM     13  C   LIG    1       24.805  31.943  65.569  0.00  0.00    +0.245 A 
ATOM     14  N   LIG    1       24.064  31.786  64.917  0.00  0.00    -0.154 NA
ATOM     15  N   LIG    1       24.160  31.087  64.209  0.00  0.00    -0.228 N 
BRANCH  11  16
ATOM     16  N   LIG    1       26.580  30.161  64.747  0.00  0.00    -0.341 N 
ATOM     17  H   LIG    1       26.740  29.788  65.215  0.00  0.00    +0.144 HD
ATOM     18  H   LIG    1       26.940  30.199  64.243  0.00  0.00    +0.144 HD
ENDBRANCH  11  16
ENDBRANCH   5   7
BRANCH   2  19
ATOM     19  O   LIG    1       22.370  33.031  61.542  0.00  0.00    -0.386 OA
ATOM     20  H   LIG    1       21.893  33.160  61.167  0.00  0.00    +0.210 HD
ENDBRANCH   2  19
BRANCH   3  21
ATOM     21  O   LIG    1       23.682  32.269  62.046  0.00  0.00    -0.382 OA
ATOM     22  H   LIG    1       24.114  32.631  62.306  0.00  0.00    +0.210 HD
ENDBRANCH   3  21
BRANCH   5  23
ATOM     23  C   LIG    1       22.551  30.432  63.988  0.00  0.00    +0.107 C 
ATOM     24  N   LIG    1       22.463  29.718  64.683  0.00  0.00    -0.193 NA
ENDBRANCH   5  23
BRANCH   1  25
ATOM     25  C   LIG    1       20.517  32.379  62.475  0.00  0.00    +0.206 C 
BRANCH  25  26
ATOM     26  O   LIG    1       19.753  32.149  63.079  0.00  0.00    -0.284 OA
BRANCH  26  27
ATOM     27  P   LIG    1       18.837  32.018  62.698  0.00  0.00    +0.483 P 
ATOM     28  O   LIG    1       19.220  32.022  61.774  0.00  0.00    -0.227 OA
BRANCH  27  29
ATOM     29  O   LIG    1       17.922  31.887  62.317  0.00  0.00    -0.248 OA
BRANCH  29  30
ATOM     30  C   LIG    1       17.679  31.017  61.887  0.00  0.00    +0.413 C 
BRANCH  30  31
ATOM     31  O   LIG    1       16.882  30.961  61.287  0.00  0.00    -0.406 OA
BRANCH  31  32
ATOM     32  C   LIG    1       16.333  30.125  61.261  0.00  0.00    +0.512 C 
ATOM     33  O   LIG    1       16.779  29.238  61.144  0.00  0.00    -0.203 OA
BRANCH  32  34
ATOM     34  O   LIG    1       15.338  30.177  61.351  0.00  0.00    -0.431 OA
BRANCH  34  35
ATOM     35  C   LIG    1       14.751  29.828  60.622  0.00  0.00    +0.174 C 
ATOM     36  C   LIG    1       14.609  30.368  59.793  0.00  0.00    +0.052 C 
ATOM     37  C   LIG    1       14.306  28.938  60.721  0.00  0.00    +0.052 C 
ENDBRANCH  34  35
ENDBRANCH  32  34
ENDBRANCH  31  32
ENDBRANCH  30  31
ENDBRANCH  29  30
ENDBRANCH  27  29
BRANCH  27  38
ATOM     38  O   LIG    1       18.454  32.015  63.621  0.00  0.00    -0.248 OA
BRANCH  38  39
ATOM     39  C   LIG    1       17.873  32.769  63.924  0.00  0.00    +0.413 C 
BRANCH  39  40
ATOM     40  O   LIG    1       18.118  33.292  64.742  0.00  0.00    -0.406 OA
BRANCH  40  41
ATOM     41  C   LIG    1       17.629  34.137  64.959  0.00  0.00    +0.512 C 
ATOM     42  O   LIG    1       16.790  34.104  65.501  0.00  0.00    -0.203 OA
BRANCH  41  43
ATOM     43  O   LIG    1       17.982  35.015  64.635  0.00  0.00    -0.431 OA
BRANCH  43  44
ATOM     44  C   LIG    1       18.656  35.515  65.177  0.00  0.00    +0.174 C 
ATOM     45  C   LIG    1       18.399  35.903  66.061  0.00  0.00    +0.052 C 
ATOM     46  C   LIG    1       19.589  35.626  64.836  0.00  0.00    +0.052 C 
ENDBRANCH  43  44
ENDBRANCH  41  43
ENDBRANCH  40  41
ENDBRANCH  39  40
ENDBRANCH  38  39
ENDBRANCH  27  38
ENDBRANCH  26  27
ENDBRANCH  25  26
ENDBRANCH   1  25
TORSDOF 20
ENDMDL
MODEL 5
REMARK VINA RESULT:      -5.6     12.163     15.084
REMARK  Name = 44468356
REMARK                            x       y       z     vdW  Elec       q    Type
REMARK                         _______ _______ _______ _____ _____    ______ ____
ROOT
ATOM      1  C   LIG    1       16.114  31.783  50.835  0.00  0.00    +0.178 C 
ATOM      2  C   LIG    1       17.084  31.556  50.928  0.00  0.00    +0.181 C 
ATOM      3  C   LIG    1       17.422  31.266  50.033  0.00  0.00    +0.139 C 
ATOM      4  C   LIG    1       18.023  30.946  49.302  0.00  0.00    +0.048 C 
ATOM      5  C   LIG    1       16.661  31.315  49.386  0.00  0.00    +0.228 C 
ATOM      6  O   LIG    1       15.853  31.634  49.881  0.00  0.00    -0.343 OA
ENDROOT
BRANCH   5   7
ATOM      7  C   LIG    1       17.263  30.995  48.654  0.00  0.00    +0.092 A 
ATOM      8  C   LIG    1       17.465  30.045  48.438  0.00  0.00    +0.029 A 
ATOM      9  C   LIG    1       18.092  30.031  47.667  0.00  0.00    +0.033 A 
ATOM     10  C   LIG    1       18.280  30.971  47.404  0.00  0.00    +0.105 A 
ATOM     11  C   LIG    1       18.853  31.365  46.685  0.00  0.00    +0.144 A 
ATOM     12  N   LIG    1       18.911  32.358  46.580  0.00  0.00    -0.217 NA
ATOM     13  C   LIG    1       18.396  32.956  47.194  0.00  0.00    +0.245 A 
ATOM     14  N   LIG    1       17.823  32.562  47.912  0.00  0.00    -0.154 NA
ATOM     15  N   LIG    1       17.765  31.569  48.017  0.00  0.00    -0.228 N 
BRANCH  11  16
ATOM     16  N   LIG    1       19.367  30.766  46.071  0.00  0.00    -0.341 N 
ATOM     17  H   LIG    1       19.540  30.202  46.262  0.00  0.00    +0.144 HD
ATOM     18  H   LIG    1       19.513  30.959  45.500  0.00  0.00    +0.144 HD
ENDBRANCH  11  16
ENDBRANCH   5   7
BRANCH   2  19
ATOM     19  O   LIG    1       17.621  31.609  51.770  0.00  0.00    -0.386 OA
ATOM     20  H   LIG    1       17.340  31.726  52.311  0.00  0.00    +0.210 HD
ENDBRANCH   2  19
BRANCH   3  21
ATOM     21  O   LIG    1       18.331  31.121  50.423  0.00  0.00    -0.382 OA
ATOM     22  H   LIG    1       18.484  30.567  50.655  0.00  0.00    +0.210 HD
ENDBRANCH   3  21
BRANCH   5  23
ATOM     23  C   LIG    1       16.124  31.262  48.543  0.00  0.00    +0.107 C 
ATOM     24  N   LIG    1       15.587  31.209  47.701  0.00  0.00    -0.193 NA
ENDBRANCH   5  23
BRANCH   1  25
ATOM     25  C   LIG    1       15.512  32.103  51.566  0.00  0.00    +0.206 C 
BRANCH  25  26
ATOM     26  O   LIG    1       14.520  32.034  51.462  0.00  0.00    -0.284 OA
BRANCH  26  27
ATOM     27  P   LIG    1       13.916  32.534  52.084  0.00  0.00    +0.483 P 
ATOM     28  O   LIG    1       14.288  32.019  52.858  0.00  0.00    -0.227 OA
BRANCH  27  29
ATOM     29  O   LIG    1       13.313  33.032  52.706  0.00  0.00    -0.248 OA
BRANCH  29  30
ATOM     30  C   LIG    1       13.702  33.616  53.420  0.00  0.00    +0.413 C 
BRANCH  30  31
ATOM     31  O   LIG    1       13.170  34.378  53.788  0.00  0.00    -0.406 OA
BRANCH  31  32
ATOM     32  C   LIG    1       13.576  34.988  54.468  0.00  0.00    +0.512 C 
ATOM     33  O   LIG    1       13.829  34.635  55.369  0.00  0.00    -0.203 OA
BRANCH  32  34
ATOM     34  O   LIG    1       13.729  35.952  54.248  0.00  0.00    -0.431 OA
BRANCH  34  35
ATOM     35  C   LIG    1       13.203  36.661  54.715  0.00  0.00    +0.174 C 
ATOM     36  C   LIG    1       12.291  36.906  54.386  0.00  0.00    +0.052 C 
ATOM     37  C   LIG    1       13.589  37.127  55.512  0.00  0.00    +0.052 C 
ENDBRANCH  34  35
ENDBRANCH  32  34
ENDBRANCH  31  32
ENDBRANCH  30  31
ENDBRANCH  29  30
ENDBRANCH  27  29
BRANCH  27  38
ATOM     38  O   LIG    1       13.544  33.047  51.311  0.00  0.00    -0.248 OA
BRANCH  38  39
ATOM     39  C   LIG    1       12.794  32.667  50.772  0.00  0.00    +0.413 C 
BRANCH  39  40
ATOM     40  O   LIG    1       12.421  33.182  50.000  0.00  0.00    -0.406 OA
BRANCH  40  41
ATOM     41  C   LIG    1       12.327  32.744  49.106  0.00  0.00    +0.512 C 
ATOM     42  O   LIG    1       11.812  31.892  49.018  0.00  0.00    -0.203 OA
BRANCH  41  43
ATOM     43  O   LIG    1       12.749  33.159  48.299  0.00  0.00    -0.431 OA
BRANCH  43  44
ATOM     44  C   LIG    1       12.177  33.481  47.546  0.00  0.00    +0.174 C 
ATOM     45  C   LIG    1       12.195  33.006  46.666  0.00  0.00    +0.052 C 
ATOM     46  C   LIG    1       11.588  34.279  47.671  0.00  0.00    +0.052 C 
ENDBRANCH  43  44
ENDBRANCH  41  43
ENDBRANCH  40  41
ENDBRANCH  39  40
ENDBRANCH  38  39
ENDBRANCH  27  38
ENDBRANCH  26  27
ENDBRANCH  25  26
ENDBRANCH   1  25
TORSDOF 20
ENDMDL
MODEL 6
REMARK VINA RESULT:      -5.6      3.413      7.967
REMARK  Name = 44468356
REMARK                            x       y       z     vdW  Elec       q    Type
REMARK                         _______ _______ _______ _____ _____    ______ ____
ROOT
ATOM      1  C   LIG    1       21.112  32.283  62.927  0.00  0.00    +0.178 C 
ATOM      2  C   LIG    1       21.905  32.439  62.338  0.00  0.00    +0.181 C 
ATOM      3  C   LIG    1       22.648  31.851  62.657  0.00  0.00    +0.139 C 
ATOM      4  C   LIG    1       23.537  31.401  62.738  0.00  0.00    +0.048 C 
ATOM      5  C   LIG    1       22.313  31.331  63.443  0.00  0.00    +0.228 C 
ATOM      6  O   LIG    1       21.364  31.599  63.610  0.00  0.00    -0.343 OA
ENDROOT
BRANCH   5   7
ATOM      7  C   LIG    1       23.203  30.881  63.524  0.00  0.00    +0.092 A 
ATOM      8  C   LIG    1       23.494  30.069  63.027  0.00  0.00    +0.029 A 
ATOM      9  C   LIG    1       24.421  29.852  63.309  0.00  0.00    +0.033 A 
ATOM     10  C   LIG    1       24.708  30.526  63.980  0.00  0.00    +0.105 A 
ATOM     11  C   LIG    1       25.560  30.646  64.490  0.00  0.00    +0.144 A 
ATOM     12  N   LIG    1       25.654  31.406  65.134  0.00  0.00    -0.217 NA
ATOM     13  C   LIG    1       24.897  32.045  65.267  0.00  0.00    +0.245 A 
ATOM     14  N   LIG    1       24.045  31.925  64.757  0.00  0.00    -0.154 NA
ATOM     15  N   LIG    1       23.951  31.166  64.113  0.00  0.00    -0.228 N 
BRANCH  11  16
ATOM     16  N   LIG    1       26.317  30.007  64.356  0.00  0.00    -0.341 N 
ATOM     17  H   LIG    1       26.369  29.695  63.823  0.00  0.00    +0.144 HD
ATOM     18  H   LIG    1       26.734  29.922  64.807  0.00  0.00    +0.144 HD
ENDBRANCH  11  16
ENDBRANCH   5   7
BRANCH   2  19
ATOM     19  O   LIG    1       21.948  33.073  61.565  0.00  0.00    -0.386 OA
ATOM     20  H   LIG    1       22.359  33.538  61.568  0.00  0.00    +0.210 HD
ENDBRANCH   2  19
BRANCH   3  21
ATOM     21  O   LIG    1       23.241  32.206  61.934  0.00  0.00    -0.382 OA
ATOM     22  H   LIG    1       22.992  32.491  61.442  0.00  0.00    +0.210 HD
ENDBRANCH   3  21
BRANCH   5  23
ATOM     23  C   LIG    1       22.271  30.697  64.216  0.00  0.00    +0.107 C 
ATOM     24  N   LIG    1       22.229  30.064  64.989  0.00  0.00    -0.193 NA
ENDBRANCH   5  23
BRANCH   1  25
ATOM     25  C   LIG    1       20.223  32.734  62.846  0.00  0.00    +0.206 C 
BRANCH  25  26
ATOM     26  O   LIG    1       19.396  32.186  62.715  0.00  0.00    -0.284 OA
BRANCH  26  27
ATOM     27  P   LIG    1       18.496  32.621  62.762  0.00  0.00    +0.483 P 
ATOM     28  O   LIG    1       18.792  33.147  63.560  0.00  0.00    -0.227 OA
BRANCH  27  29
ATOM     29  O   LIG    1       17.597  33.055  62.810  0.00  0.00    -0.248 OA
BRANCH  29  30
ATOM     30  C   LIG    1       17.126  33.135  63.689  0.00  0.00    +0.413 C 
BRANCH  30  31
ATOM     31  O   LIG    1       16.131  33.054  63.732  0.00  0.00    -0.406 OA
BRANCH  31  32
ATOM     32  C   LIG    1       15.666  33.069  64.618  0.00  0.00    +0.512 C 
ATOM     33  O   LIG    1       16.182  32.896  65.456  0.00  0.00    -0.203 OA
BRANCH  32  34
ATOM     34  O   LIG    1       14.684  33.256  64.664  0.00  0.00    -0.431 OA
BRANCH  34  35
ATOM     35  C   LIG    1       14.030  32.501  64.646  0.00  0.00    +0.174 C 
ATOM     36  C   LIG    1       14.087  31.772  65.328  0.00  0.00    +0.052 C 
ATOM     37  C   LIG    1       13.317  32.474  63.944  0.00  0.00    +0.052 C 
ENDBRANCH  34  35
ENDBRANCH  32  34
ENDBRANCH  31  32
ENDBRANCH  30  31
ENDBRANCH  29  30
ENDBRANCH  27  29
BRANCH  27  38
ATOM     38  O   LIG    1       18.201  32.095  61.965  0.00  0.00    -0.248 OA
BRANCH  38  39
ATOM     39  C   LIG    1       18.042  31.112  62.045  0.00  0.00    +0.413 C 
BRANCH  39  40
ATOM     40  O   LIG    1       17.409  30.654  61.419  0.00  0.00    -0.406 OA
BRANCH  40  41
ATOM     41  C   LIG    1       17.085  29.730  61.623  0.00  0.00    +0.512 C 
ATOM     42  O   LIG    1       17.615  28.938  61.322  0.00  0.00    -0.203 OA
BRANCH  41  43
ATOM     43  O   LIG    1       16.231  29.600  62.128  0.00  0.00    -0.431 OA
BRANCH  43  44
ATOM     44  C   LIG    1       15.384  29.406  61.634  0.00  0.00    +0.174 C 
ATOM     45  C   LIG    1       15.417  28.975  60.733  0.00  0.00    +0.052 C 
ATOM     46  C   LIG    1       14.503  29.642  62.042  0.00  0.00    +0.052 C 
ENDBRANCH  43  44
ENDBRANCH  41  43
ENDBRANCH  40  41
ENDBRANCH  39  40
ENDBRANCH  38  39
ENDBRANCH  27  38
ENDBRANCH  26  27
ENDBRANCH  25  26
ENDBRANCH   1  25
TORSDOF 20
ENDMDL
MODEL 7
REMARK VINA RESULT:      -5.5      3.676      7.755
REMARK  Name = 44468356
REMARK                            x       y       z     vdW  Elec       q    Type
REMARK                         _______ _______ _______ _____ _____    ______ ____
ROOT
ATOM      1  C   LIG    1       16.662  31.524  61.618  0.00  0.00    +0.178 C 
ATOM      2  C   LIG    1       17.291  30.752  61.714  0.00  0.00    +0.181 C 
ATOM      3  C   LIG    1       18.040  31.035  62.313  0.00  0.00    +0.139 C 
ATOM      4  C   LIG    1       18.880  31.026  62.854  0.00  0.00    +0.048 C 
ATOM      5  C   LIG    1       17.874  31.983  62.586  0.00  0.00    +0.228 C 
ATOM      6  O   LIG    1       17.023  32.285  62.157  0.00  0.00    -0.343 OA
ENDROOT
BRANCH   5   7
ATOM      7  C   LIG    1       18.716  31.973  63.127  0.00  0.00    +0.092 A 
ATOM      8  C   LIG    1       18.805  31.644  64.062  0.00  0.00    +0.029 A 
ATOM      9  C   LIG    1       19.753  31.758  64.339  0.00  0.00    +0.033 A 
ATOM     10  C   LIG    1       20.252  32.156  63.578  0.00  0.00    +0.105 A 
ATOM     11  C   LIG    1       21.211  32.417  63.467  0.00  0.00    +0.144 A 
ATOM     12  N   LIG    1       21.526  32.812  62.604  0.00  0.00    -0.217 NA
ATOM     13  C   LIG    1       20.881  32.946  61.851  0.00  0.00    +0.245 A 
ATOM     14  N   LIG    1       19.922  32.685  61.962  0.00  0.00    -0.154 NA
ATOM     15  N   LIG    1       19.608  32.290  62.825  0.00  0.00    -0.228 N 
BRANCH  11  16
ATOM     16  N   LIG    1       21.856  32.283  64.220  0.00  0.00    -0.341 N 
ATOM     17  H   LIG    1       22.305  32.699  64.321  0.00  0.00    +0.144 HD
ATOM     18  H   LIG    1       21.807  31.785  64.585  0.00  0.00    +0.144 HD
ENDBRANCH  11  16
ENDBRANCH   5   7
BRANCH   2  19
ATOM     19  O   LIG    1       17.188  29.853  61.287  0.00  0.00    -0.386 OA
ATOM     20  H   LIG    1       17.249  29.793  60.673  0.00  0.00    +0.210 HD
ENDBRANCH   2  19
BRANCH   3  21
ATOM     21  O   LIG    1       18.457  30.131  62.220  0.00  0.00    -0.382 OA
ATOM     22  H   LIG    1       19.063  30.080  62.099  0.00  0.00    +0.210 HD
ENDBRANCH   3  21
BRANCH   5  23
ATOM     23  C   LIG    1       17.977  32.881  63.014  0.00  0.00    +0.107 C 
ATOM     24  N   LIG    1       18.081  33.779  63.443  0.00  0.00    -0.193 NA
ENDBRANCH   5  23
BRANCH   1  25
ATOM     25  C   LIG    1       15.821  31.533  61.077  0.00  0.00    +0.206 C 
BRANCH  25  26
ATOM     26  O   LIG    1       14.933  31.565  61.536  0.00  0.00    -0.284 OA
BRANCH  26  27
ATOM     27  P   LIG    1       14.123  31.876  61.037  0.00  0.00    +0.483 P 
ATOM     28  O   LIG    1       14.395  31.321  60.250  0.00  0.00    -0.227 OA
BRANCH  27  29
ATOM     29  O   LIG    1       13.315  32.186  60.538  0.00  0.00    -0.248 OA
BRANCH  29  30
ATOM     30  C   LIG    1       13.395  32.470  59.582  0.00  0.00    +0.413 C 
BRANCH  30  31
ATOM     31  O   LIG    1       12.858  33.242  59.243  0.00  0.00    -0.406 OA
BRANCH  31  32
ATOM     32  C   LIG    1       13.108  33.683  58.380  0.00  0.00    +0.512 C 
ATOM     33  O   LIG    1       12.847  33.266  57.510  0.00  0.00    -0.203 OA
BRANCH  32  34
ATOM     34  O   LIG    1       13.619  34.543  58.389  0.00  0.00    -0.431 OA
BRANCH  34  35
ATOM     35  C   LIG    1       13.441  35.238  57.693  0.00  0.00    +0.174 C 
ATOM     36  C   LIG    1       12.645  35.837  57.776  0.00  0.00    +0.052 C 
ATOM     37  C   LIG    1       14.059  35.334  56.912  0.00  0.00    +0.052 C 
ENDBRANCH  34  35
ENDBRANCH  32  34
ENDBRANCH  31  32
ENDBRANCH  30  31
ENDBRANCH  29  30
ENDBRANCH  27  29
BRANCH  27  38
ATOM     38  O   LIG    1       13.852  32.431  61.823  0.00  0.00    -0.248 OA
BRANCH  38  39
ATOM     39  C   LIG    1       13.250  32.047  62.522  0.00  0.00    +0.413 C 
BRANCH  39  40
ATOM     40  O   LIG    1       13.176  32.489  63.417  0.00  0.00    -0.406 OA
BRANCH  40  41
ATOM     41  C   LIG    1       12.363  32.342  63.981  0.00  0.00    +0.512 C 
ATOM     42  O   LIG    1       11.979  31.424  64.074  0.00  0.00    -0.203 OA
BRANCH  41  43
ATOM     43  O   LIG    1       11.936  33.113  64.453  0.00  0.00    -0.431 OA
BRANCH  43  44
ATOM     44  C   LIG    1       12.044  33.217  65.441  0.00  0.00    +0.174 C 
ATOM     45  C   LIG    1       12.832  33.709  65.809  0.00  0.00    +0.052 C 
ATOM     46  C   LIG    1       11.363  32.829  66.062  0.00  0.00    +0.052 C 
ENDBRANCH  43  44
ENDBRANCH  41  43
ENDBRANCH  40  41
ENDBRANCH  39  40
ENDBRANCH  38  39
ENDBRANCH  27  38
ENDBRANCH  26  27
ENDBRANCH  25  26
ENDBRANCH   1  25
TORSDOF 20
ENDMDL
MODEL 8
REMARK VINA RESULT:      -5.5      4.165      8.397
REMARK  Name = 44468356
REMARK                            x       y       z     vdW  Elec       q    Type
REMARK                         _______ _______ _______ _____ _____    ______ ____
ROOT
ATOM      1  C   LIG    1       23.462  30.912  63.066  0.00  0.00    +0.178 C 
ATOM      2  C   LIG    1       23.817  29.978  63.110  0.00  0.00    +0.181 C 
ATOM      3  C   LIG    1       24.816  30.024  63.083  0.00  0.00    +0.139 C 
ATOM      4  C   LIG    1       25.780  29.761  63.074  0.00  0.00    +0.048 C 
ATOM      5  C   LIG    1       25.078  30.988  63.021  0.00  0.00    +0.228 C 
ATOM      6  O   LIG    1       24.241  31.536  63.011  0.00  0.00    -0.343 OA
ENDROOT
BRANCH   5   7
ATOM      7  C   LIG    1       26.043  30.724  63.013  0.00  0.00    +0.092 A 
ATOM      8  C   LIG    1       26.576  30.488  62.207  0.00  0.00    +0.029 A 
ATOM      9  C   LIG    1       27.499  30.270  62.502  0.00  0.00    +0.033 A 
ATOM     10  C   LIG    1       27.541  30.369  63.490  0.00  0.00    +0.105 A 
ATOM     11  C   LIG    1       28.284  30.240  64.147  0.00  0.00    +0.144 A 
ATOM     12  N   LIG    1       28.121  30.393  65.121  0.00  0.00    -0.217 NA
ATOM     13  C   LIG    1       27.215  30.675  65.439  0.00  0.00    +0.245 A 
ATOM     14  N   LIG    1       26.473  30.804  64.782  0.00  0.00    -0.154 NA
ATOM     15  N   LIG    1       26.636  30.651  63.807  0.00  0.00    -0.228 N 
BRANCH  11  16
ATOM     16  N   LIG    1       29.189  29.958  63.829  0.00  0.00    -0.341 N 
ATOM     17  H   LIG    1       29.241  29.548  63.367  0.00  0.00    +0.144 HD
ATOM     18  H   LIG    1       29.698  30.193  64.094  0.00  0.00    +0.144 HD
ENDBRANCH  11  16
ENDBRANCH   5   7
BRANCH   2  19
ATOM     19  O   LIG    1       23.270  29.143  63.171  0.00  0.00    -0.386 OA
ATOM     20  H   LIG    1       22.742  29.142  63.499  0.00  0.00    +0.210 HD
ENDBRANCH   2  19
BRANCH   3  21
ATOM     21  O   LIG    1       24.864  29.027  63.139  0.00  0.00    -0.382 OA
ATOM     22  H   LIG    1       25.252  28.714  62.769  0.00  0.00    +0.210 HD
ENDBRANCH   3  21
BRANCH   5  23
ATOM     23  C   LIG    1       25.626  31.822  62.960  0.00  0.00    +0.107 C 
ATOM     24  N   LIG    1       26.174  32.656  62.899  0.00  0.00    -0.193 NA
ENDBRANCH   5  23
BRANCH   1  25
ATOM     25  C   LIG    1       22.498  31.175  63.075  0.00  0.00    +0.206 C 
BRANCH  25  26
ATOM     26  O   LIG    1       22.242  32.131  63.223  0.00  0.00    -0.284 OA
BRANCH  26  27
ATOM     27  P   LIG    1       21.470  32.356  63.817  0.00  0.00    +0.483 P 
ATOM     28  O   LIG    1       21.992  32.048  64.613  0.00  0.00    -0.227 OA
BRANCH  27  29
ATOM     29  O   LIG    1       20.698  32.580  64.412  0.00  0.00    -0.248 OA
BRANCH  29  30
ATOM     30  C   LIG    1       20.829  33.194  65.191  0.00  0.00    +0.413 C 
BRANCH  30  31
ATOM     31  O   LIG    1       20.050  33.448  65.763  0.00  0.00    -0.406 OA
BRANCH  31  32
ATOM     32  C   LIG    1       19.695  34.383  65.737  0.00  0.00    +0.512 C 
ATOM     33  O   LIG    1       20.286  35.149  65.991  0.00  0.00    -0.203 OA
BRANCH  32  34
ATOM     34  O   LIG    1       18.750  34.553  65.457  0.00  0.00    -0.431 OA
BRANCH  34  35
ATOM     35  C   LIG    1       18.444  35.485  65.266  0.00  0.00    +0.174 C 
ATOM     36  C   LIG    1       18.480  35.842  64.333  0.00  0.00    +0.052 C 
ATOM     37  C   LIG    1       18.102  36.061  66.009  0.00  0.00    +0.052 C 
ENDBRANCH  34  35
ENDBRANCH  32  34
ENDBRANCH  31  32
ENDBRANCH  30  31
ENDBRANCH  29  30
ENDBRANCH  27  29
BRANCH  27  38
ATOM     38  O   LIG    1       20.948  32.663  63.022  0.00  0.00    -0.248 OA
BRANCH  38  39
ATOM     39  C   LIG    1       20.162  32.134  62.705  0.00  0.00    +0.413 C 
BRANCH  39  40
ATOM     40  O   LIG    1       19.369  32.602  62.312  0.00  0.00    -0.406 OA
BRANCH  40  41
ATOM     41  C   LIG    1       18.520  32.098  62.152  0.00  0.00    +0.512 C 
ATOM     42  O   LIG    1       18.420  31.534  61.333  0.00  0.00    -0.203 OA
BRANCH  41  43
ATOM     43  O   LIG    1       17.771  32.158  62.813  0.00  0.00    -0.431 OA
BRANCH  43  44
ATOM     44  C   LIG    1       16.867  32.466  62.517  0.00  0.00    +0.174 C 
ATOM     45  C   LIG    1       16.316  31.890  61.913  0.00  0.00    +0.052 C 
ATOM     46  C   LIG    1       16.514  33.349  62.824  0.00  0.00    +0.052 C 
ENDBRANCH  43  44
ENDBRANCH  41  43
ENDBRANCH  40  41
ENDBRANCH  39  40
ENDBRANCH  38  39
ENDBRANCH  27  38
ENDBRANCH  26  27
ENDBRANCH  25  26
ENDBRANCH   1  25
TORSDOF 20
ENDMDL
MODEL 9
REMARK VINA RESULT:      -5.5      3.647      8.361
REMARK  Name = 44468356
REMARK                            x       y       z     vdW  Elec       q    Type
REMARK                         _______ _______ _______ _____ _____    ______ ____
ROOT
ATOM      1  C   LIG    1       17.626  33.143  64.109  0.00  0.00    +0.178 C 
ATOM      2  C   LIG    1       18.405  33.598  64.542  0.00  0.00    +0.181 C 
ATOM      3  C   LIG    1       19.226  33.375  64.017  0.00  0.00    +0.139 C 
ATOM      4  C   LIG    1       20.176  33.332  63.710  0.00  0.00    +0.048 C 
ATOM      5  C   LIG    1       18.954  32.782  63.258  0.00  0.00    +0.228 C 
ATOM      6  O   LIG    1       17.966  32.639  63.316  0.00  0.00    -0.343 OA
ENDROOT
BRANCH   5   7
ATOM      7  C   LIG    1       19.906  32.739  62.951  0.00  0.00    +0.092 A 
ATOM      8  C   LIG    1       20.355  33.394  62.352  0.00  0.00    +0.029 A 
ATOM      9  C   LIG    1       21.294  33.097  62.222  0.00  0.00    +0.033 A 
ATOM     10  C   LIG    1       21.429  32.259  62.738  0.00  0.00    +0.105 A 
ATOM     11  C   LIG    1       22.224  31.665  62.859  0.00  0.00    +0.144 A 
ATOM     12  N   LIG    1       22.157  30.848  63.432  0.00  0.00    -0.217 NA
ATOM     13  C   LIG    1       21.294  30.626  63.886  0.00  0.00    +0.245 A 
ATOM     14  N   LIG    1       20.498  31.221  63.766  0.00  0.00    -0.154 NA
ATOM     15  N   LIG    1       20.566  32.037  63.192  0.00  0.00    -0.228 N 
BRANCH  11  16
ATOM     16  N   LIG    1       23.088  31.887  62.405  0.00  0.00    -0.341 N 
ATOM     17  H   LIG    1       23.597  31.993  62.742  0.00  0.00    +0.144 HD
ATOM     18  H   LIG    1       23.113  31.918  61.786  0.00  0.00    +0.144 HD
ENDBRANCH  11  16
ENDBRANCH   5   7
BRANCH   2  19
ATOM     19  O   LIG    1       18.369  34.175  65.358  0.00  0.00    -0.386 OA
ATOM     20  H   LIG    1       18.606  33.970  65.894  0.00  0.00    +0.210 HD
ENDBRANCH   2  19
BRANCH   3  21
ATOM     21  O   LIG    1       19.777  33.926  64.643  0.00  0.00    -0.382 OA
ATOM     22  H   LIG    1       20.361  33.759  64.770  0.00  0.00    +0.210 HD
ENDBRANCH   3  21
BRANCH   5  23
ATOM     23  C   LIG    1       18.991  32.204  62.442  0.00  0.00    +0.107 C 
ATOM     24  N   LIG    1       19.028  31.627  61.626  0.00  0.00    -0.193 NA
ENDBRANCH   5  23
BRANCH   1  25
ATOM     25  C   LIG    1       16.676  33.185  64.416  0.00  0.00    +0.206 C 
BRANCH  25  26
ATOM     26  O   LIG    1       15.937  32.934  63.790  0.00  0.00    -0.284 OA
BRANCH  26  27
ATOM     27  P   LIG    1       15.027  32.725  64.149  0.00  0.00    +0.483 P 
ATOM     28  O   LIG    1       15.371  32.832  65.083  0.00  0.00    -0.227 OA
BRANCH  27  29
ATOM     29  O   LIG    1       14.118  32.516  64.508  0.00  0.00    -0.248 OA
BRANCH  29  30
ATOM     30  C   LIG    1       13.640  33.184  65.079  0.00  0.00    +0.413 C 
BRANCH  30  31
ATOM     31  O   LIG    1       12.728  32.978  65.432  0.00  0.00    -0.406 OA
BRANCH  31  32
ATOM     32  C   LIG    1       12.095  33.722  65.646  0.00  0.00    +0.512 C 
ATOM     33  O   LIG    1       12.448  34.630  65.871  0.00  0.00    -0.203 OA
BRANCH  32  34
ATOM     34  O   LIG    1       11.108  33.559  65.634  0.00  0.00    -0.431 OA
BRANCH  34  35
ATOM     35  C   LIG    1       10.494  34.235  65.228  0.00  0.00    +0.174 C 
ATOM     36  C   LIG    1       10.045  34.915  65.808  0.00  0.00    +0.052 C 
ATOM     37  C   LIG    1       10.329  34.232  64.241  0.00  0.00    +0.052 C 
ENDBRANCH  34  35
ENDBRANCH  32  34
ENDBRANCH  31  32
ENDBRANCH  30  31
ENDBRANCH  29  30
ENDBRANCH  27  29
BRANCH  27  38
ATOM     38  O   LIG    1       14.684  32.618  63.216  0.00  0.00    -0.248 OA
BRANCH  38  39
ATOM     39  C   LIG    1       14.671  31.714  62.789  0.00  0.00    +0.413 C 
BRANCH  39  40
ATOM     40  O   LIG    1       14.360  31.613  61.844  0.00  0.00    -0.406 OA
BRANCH  40  41
ATOM     41  C   LIG    1       14.553  30.769  61.342  0.00  0.00    +0.512 C 
ATOM     42  O   LIG    1       14.369  29.883  61.765  0.00  0.00    -0.203 OA
BRANCH  41  43
ATOM     43  O   LIG    1       14.931  30.813  60.417  0.00  0.00    -0.431 OA
BRANCH  43  44
ATOM     44  C   LIG    1       14.395  30.482  59.642  0.00  0.00    +0.174 C 
ATOM     45  C   LIG    1       14.558  29.566  59.275  0.00  0.00    +0.052 C 
ATOM     46  C   LIG    1       13.694  31.066  59.232  0.00  0.00    +0.052 C 
ENDBRANCH  43  44
ENDBRANCH  41  43
ENDBRANCH  40  41
ENDBRANCH  39  40
ENDBRANCH  38  39
ENDBRANCH  27  38
ENDBRANCH  26  27
ENDBRANCH  25  26
ENDBRANCH   1  25
TORSDOF 20
ENDMDL
