MODEL 1
REMARK VINA RESULT:      -7.6      0.000      0.000
REMARK  Name = 44468355
REMARK                            x       y       z     vdW  Elec       q    Type
REMARK                         _______ _______ _______ _____ _____    ______ ____
ROOT
ATOM      1  C   LIG    1       23.485  31.472  62.879  0.00  0.00    +0.178 C 
ATOM      2  C   LIG    1       23.711  30.503  62.984  0.00  0.00    +0.181 C 
ATOM      3  C   LIG    1       24.708  30.418  62.999  0.00  0.00    +0.139 C 
ATOM      4  C   LIG    1       25.629  30.032  63.046  0.00  0.00    +0.048 C 
ATOM      5  C   LIG    1       25.097  31.334  62.904  0.00  0.00    +0.228 C 
ATOM      6  O   LIG    1       24.342  31.985  62.830  0.00  0.00    -0.343 OA
ENDROOT
BRANCH   5   7
ATOM      7  C   LIG    1       26.019  30.947  62.951  0.00  0.00    +0.092 A 
ATOM      8  C   LIG    1       26.538  30.586  62.185  0.00  0.00    +0.029 A 
ATOM      9  C   LIG    1       27.416  30.271  62.530  0.00  0.00    +0.033 A 
ATOM     10  C   LIG    1       27.441  30.437  63.509  0.00  0.00    +0.105 A 
ATOM     11  C   LIG    1       28.140  30.261  64.202  0.00  0.00    +0.144 A 
ATOM     12  N   LIG    1       27.971  30.506  65.157  0.00  0.00    -0.217 NA
ATOM     13  C   LIG    1       27.103  30.926  65.418  0.00  0.00    +0.245 A 
ATOM     14  N   LIG    1       26.404  31.102  64.725  0.00  0.00    -0.154 NA
ATOM     15  N   LIG    1       26.573  30.857  63.771  0.00  0.00    -0.228 N 
BRANCH  11  16
ATOM     16  N   LIG    1       29.010  29.840  63.940  0.00  0.00    -0.341 N 
ATOM     17  H   LIG    1       29.414  29.668  64.377  0.00  0.00    +0.144 HD
ATOM     18  H   LIG    1       29.143  29.753  63.341  0.00  0.00    +0.144 HD
ENDBRANCH  11  16
ENDBRANCH   5   7
BRANCH   5  19
ATOM     19  C   LIG    1       25.752  32.086  62.828  0.00  0.00    +0.107 C 
ATOM     20  N   LIG    1       26.407  32.839  62.752  0.00  0.00    -0.193 NA
ENDBRANCH   5  19
BRANCH   3  21
ATOM     21  O   LIG    1       24.622  29.427  63.104  0.00  0.00    -0.382 OA
ATOM     22  H   LIG    1       24.901  29.047  62.700  0.00  0.00    +0.210 HD
ENDBRANCH   3  21
BRANCH   2  23
ATOM     23  O   LIG    1       23.056  29.752  63.060  0.00  0.00    -0.386 OA
ATOM     24  H   LIG    1       22.899  29.426  62.557  0.00  0.00    +0.210 HD
ENDBRANCH   2  23
BRANCH   1  25
ATOM     25  C   LIG    1       22.565  31.858  62.833  0.00  0.00    +0.206 C 
BRANCH  25  26
ATOM     26  O   LIG    1       22.240  32.277  61.984  0.00  0.00    -0.284 OA
BRANCH  26  27
ATOM     27  P   LIG    1       21.412  32.836  61.986  0.00  0.00    +0.472 P 
ATOM     28  O   LIG    1       21.047  32.292  62.742  0.00  0.00    -0.228 OA
BRANCH  27  29
ATOM     29  O   LIG    1       21.776  33.379  61.230  0.00  0.00    -0.303 OA
ATOM     30  H   LIG    1       22.326  33.658  61.285  0.00  0.00    +0.222 HD
ENDBRANCH  27  29
BRANCH  27  31
ATOM     31  O   LIG    1       20.582  33.395  61.989  0.00  0.00    -0.303 OA
ATOM     32  H   LIG    1       20.026  33.122  62.022  0.00  0.00    +0.222 HD
ENDBRANCH  27  31
ENDBRANCH  26  27
ENDBRANCH  25  26
ENDBRANCH   1  25
TORSDOF 10
ENDMDL
MODEL 2
REMARK VINA RESULT:      -7.0     13.476     15.477
REMARK  Name = 44468355
REMARK                            x       y       z     vdW  Elec       q    Type
REMARK                         _______ _______ _______ _____ _____    ______ ____
ROOT
ATOM      1  C   LIG    1       20.295  43.054  53.103  0.00  0.00    +0.178 C 
ATOM      2  C   LIG    1       20.241  43.002  54.101  0.00  0.00    +0.181 C 
ATOM      3  C   LIG    1       19.827  42.123  54.342  0.00  0.00    +0.139 C 
ATOM      4  C   LIG    1       19.458  41.359  54.870  0.00  0.00    +0.048 C 
ATOM      5  C   LIG    1       19.626  41.634  53.493  0.00  0.00    +0.228 C 
ATOM      6  O   LIG    1       19.915  42.209  52.728  0.00  0.00    -0.343 OA
ENDROOT
BRANCH   5   7
ATOM      7  C   LIG    1       19.256  40.869  54.023  0.00  0.00    +0.092 A 
ATOM      8  C   LIG    1       18.391  40.864  54.511  0.00  0.00    +0.029 A 
ATOM      9  C   LIG    1       18.287  39.974  54.944  0.00  0.00    +0.033 A 
ATOM     10  C   LIG    1       19.088  39.428  54.723  0.00  0.00    +0.105 A 
ATOM     11  C   LIG    1       19.352  38.495  54.967  0.00  0.00    +0.144 A 
ATOM     12  N   LIG    1       20.218  38.119  54.639  0.00  0.00    -0.217 NA
ATOM     13  C   LIG    1       20.820  38.675  54.067  0.00  0.00    +0.245 A 
ATOM     14  N   LIG    1       20.556  39.608  53.823  0.00  0.00    -0.154 NA
ATOM     15  N   LIG    1       19.690  39.984  54.151  0.00  0.00    -0.228 N 
BRANCH  11  16
ATOM     16  N   LIG    1       18.750  37.938  55.540  0.00  0.00    -0.341 N 
ATOM     17  H   LIG    1       18.185  37.785  55.337  0.00  0.00    +0.144 HD
ATOM     18  H   LIG    1       18.942  37.747  56.097  0.00  0.00    +0.144 HD
ENDBRANCH  11  16
ENDBRANCH   5   7
BRANCH   5  19
ATOM     19  C   LIG    1       19.320  40.932  52.850  0.00  0.00    +0.107 C 
ATOM     20  N   LIG    1       19.014  40.231  52.206  0.00  0.00    -0.193 NA
ENDBRANCH   5  19
BRANCH   3  21
ATOM     21  O   LIG    1       19.905  42.353  55.312  0.00  0.00    -0.382 OA
ATOM     22  H   LIG    1       19.882  42.946  55.493  0.00  0.00    +0.210 HD
ENDBRANCH   3  21
BRANCH   2  23
ATOM     23  O   LIG    1       20.547  43.704  54.744  0.00  0.00    -0.386 OA
ATOM     24  H   LIG    1       20.673  44.275  54.542  0.00  0.00    +0.210 HD
ENDBRANCH   2  23
BRANCH   1  25
ATOM     25  C   LIG    1       20.664  43.818  52.575  0.00  0.00    +0.206 C 
BRANCH  25  26
ATOM     26  O   LIG    1       20.330  43.994  51.649  0.00  0.00    -0.284 OA
BRANCH  26  27
ATOM     27  P   LIG    1       20.437  44.900  51.241  0.00  0.00    +0.472 P 
ATOM     28  O   LIG    1       19.466  45.085  51.397  0.00  0.00    -0.228 OA
BRANCH  27  29
ATOM     29  O   LIG    1       21.407  44.716  51.086  0.00  0.00    -0.303 OA
ATOM     30  H   LIG    1       21.730  45.067  50.691  0.00  0.00    +0.222 HD
ENDBRANCH  27  29
BRANCH  27  31
ATOM     31  O   LIG    1       20.543  45.808  50.834  0.00  0.00    -0.303 OA
ATOM     32  H   LIG    1       20.920  46.223  51.098  0.00  0.00    +0.222 HD
ENDBRANCH  27  31
ENDBRANCH  26  27
ENDBRANCH  25  26
ENDBRANCH   1  25
TORSDOF 10
ENDMDL
MODEL 3
REMARK VINA RESULT:      -6.9     13.195     15.083
REMARK  Name = 44468355
REMARK                            x       y       z     vdW  Elec       q    Type
REMARK                         _______ _______ _______ _____ _____    ______ ____
ROOT
ATOM      1  C   LIG    1       19.799  39.593  54.144  0.00  0.00    +0.178 C 
ATOM      2  C   LIG    1       20.460  39.591  53.394  0.00  0.00    +0.181 C 
ATOM      3  C   LIG    1       20.734  40.538  53.222  0.00  0.00    +0.139 C 
ATOM      4  C   LIG    1       21.182  41.343  52.832  0.00  0.00    +0.048 C 
ATOM      5  C   LIG    1       20.242  41.124  53.866  0.00  0.00    +0.228 C 
ATOM      6  O   LIG    1       19.664  40.540  54.436  0.00  0.00    -0.343 OA
ENDROOT
BRANCH   5   7
ATOM      7  C   LIG    1       20.690  41.929  53.476  0.00  0.00    +0.092 A 
ATOM      8  C   LIG    1       21.541  42.333  53.792  0.00  0.00    +0.029 A 
ATOM      9  C   LIG    1       21.741  43.119  53.217  0.00  0.00    +0.033 A 
ATOM     10  C   LIG    1       21.015  43.202  52.544  0.00  0.00    +0.105 A 
ATOM     11  C   LIG    1       20.859  43.855  51.802  0.00  0.00    +0.144 A 
ATOM     12  N   LIG    1       20.050  43.767  51.221  0.00  0.00    -0.217 NA
ATOM     13  C   LIG    1       19.397  43.028  51.382  0.00  0.00    +0.245 A 
ATOM     14  N   LIG    1       19.553  42.376  52.123  0.00  0.00    -0.154 NA
ATOM     15  N   LIG    1       20.362  42.463  52.704  0.00  0.00    -0.228 N 
BRANCH  11  16
ATOM     16  N   LIG    1       21.513  44.595  51.642  0.00  0.00    -0.341 N 
ATOM     17  H   LIG    1       21.729  44.698  51.070  0.00  0.00    +0.144 HD
ATOM     18  H   LIG    1       21.701  44.949  52.114  0.00  0.00    +0.144 HD
ENDBRANCH  11  16
ENDBRANCH   5   7
BRANCH   5  19
ATOM     19  C   LIG    1       19.912  41.930  54.358  0.00  0.00    +0.107 C 
ATOM     20  N   LIG    1       19.582  42.735  54.850  0.00  0.00    -0.193 NA
ENDBRANCH   5  19
BRANCH   3  21
ATOM     21  O   LIG    1       21.341  40.229  52.489  0.00  0.00    -0.382 OA
ATOM     22  H   LIG    1       21.645  39.691  52.544  0.00  0.00    +0.210 HD
ENDBRANCH   3  21
BRANCH   2  23
ATOM     23  O   LIG    1       20.790  38.785  52.902  0.00  0.00    -0.386 OA
ATOM     24  H   LIG    1       20.896  38.817  52.293  0.00  0.00    +0.210 HD
ENDBRANCH   2  23
BRANCH   1  25
ATOM     25  C   LIG    1       19.351  38.788  54.534  0.00  0.00    +0.206 C 
BRANCH  25  26
ATOM     26  O   LIG    1       18.537  38.896  55.105  0.00  0.00    -0.284 OA
BRANCH  26  27
ATOM     27  P   LIG    1       18.089  38.092  55.495  0.00  0.00    +0.472 P 
ATOM     28  O   LIG    1       17.232  38.353  55.050  0.00  0.00    -0.228 OA
BRANCH  27  29
ATOM     29  O   LIG    1       18.946  37.831  55.940  0.00  0.00    -0.303 OA
ATOM     30  H   LIG    1       18.937  37.583  56.507  0.00  0.00    +0.222 HD
ENDBRANCH  27  29
BRANCH  27  31
ATOM     31  O   LIG    1       17.640  37.288  55.886  0.00  0.00    -0.303 OA
ATOM     32  H   LIG    1       17.896  36.727  55.816  0.00  0.00    +0.222 HD
ENDBRANCH  27  31
ENDBRANCH  26  27
ENDBRANCH  25  26
ENDBRANCH   1  25
TORSDOF 10
ENDMDL
MODEL 4
REMARK VINA RESULT:      -6.8      3.927      6.471
REMARK  Name = 44468355
REMARK                            x       y       z     vdW  Elec       q    Type
REMARK                         _______ _______ _______ _____ _____    ______ ____
ROOT
ATOM      1  C   LIG    1       22.761  31.931  62.742  0.00  0.00    +0.178 C 
ATOM      2  C   LIG    1       22.412  32.576  62.062  0.00  0.00    +0.181 C 
ATOM      3  C   LIG    1       21.449  32.753  62.269  0.00  0.00    +0.139 C 
ATOM      4  C   LIG    1       20.518  33.112  62.224  0.00  0.00    +0.048 C 
ATOM      5  C   LIG    1       21.204  32.216  63.077  0.00  0.00    +0.228 C 
ATOM      6  O   LIG    1       22.014  31.709  63.369  0.00  0.00    -0.343 OA
ENDROOT
BRANCH   5   7
ATOM      7  C   LIG    1       20.271  32.576  63.032  0.00  0.00    +0.092 A 
ATOM      8  C   LIG    1       19.529  32.206  62.484  0.00  0.00    +0.029 A 
ATOM      9  C   LIG    1       18.723  32.766  62.639  0.00  0.00    +0.033 A 
ATOM     10  C   LIG    1       18.964  33.484  63.282  0.00  0.00    +0.105 A 
ATOM     11  C   LIG    1       18.435  34.234  63.681  0.00  0.00    +0.144 A 
ATOM     12  N   LIG    1       18.869  34.865  64.323  0.00  0.00    -0.217 NA
ATOM     13  C   LIG    1       19.831  34.747  64.567  0.00  0.00    +0.245 A 
ATOM     14  N   LIG    1       20.360  33.998  64.169  0.00  0.00    -0.154 NA
ATOM     15  N   LIG    1       19.926  33.366  63.526  0.00  0.00    -0.228 N 
BRANCH  11  16
ATOM     16  N   LIG    1       17.472  34.352  63.436  0.00  0.00    -0.341 N 
ATOM     17  H   LIG    1       17.079  33.876  63.491  0.00  0.00    +0.144 HD
ATOM     18  H   LIG    1       17.270  34.900  63.231  0.00  0.00    +0.144 HD
ENDBRANCH  11  16
ENDBRANCH   5   7
BRANCH   5  19
ATOM     19  C   LIG    1       20.682  31.818  63.831  0.00  0.00    +0.107 C 
ATOM     20  N   LIG    1       20.160  31.418  64.585  0.00  0.00    -0.193 NA
ENDBRANCH   5  19
BRANCH   3  21
ATOM     21  O   LIG    1       21.395  33.374  61.487  0.00  0.00    -0.382 OA
ATOM     22  H   LIG    1       21.550  33.173  60.920  0.00  0.00    +0.210 HD
ENDBRANCH   3  21
BRANCH   2  23
ATOM     23  O   LIG    1       22.934  32.974  61.308  0.00  0.00    -0.386 OA
ATOM     24  H   LIG    1       23.355  32.633  61.008  0.00  0.00    +0.210 HD
ENDBRANCH   2  23
BRANCH   1  25
ATOM     25  C   LIG    1       23.692  31.571  62.787  0.00  0.00    +0.206 C 
BRANCH  25  26
ATOM     26  O   LIG    1       23.851  30.585  62.731  0.00  0.00    -0.284 OA
BRANCH  26  27
ATOM     27  P   LIG    1       24.732  30.203  63.012  0.00  0.00    +0.472 P 
ATOM     28  O   LIG    1       25.197  30.789  62.347  0.00  0.00    -0.228 OA
BRANCH  27  29
ATOM     29  O   LIG    1       24.266  29.618  63.675  0.00  0.00    -0.303 OA
ATOM     30  H   LIG    1       23.671  29.717  63.812  0.00  0.00    +0.222 HD
ENDBRANCH  27  29
BRANCH  27  31
ATOM     31  O   LIG    1       25.613  29.822  63.291  0.00  0.00    -0.303 OA
ATOM     32  H   LIG    1       25.987  30.148  63.664  0.00  0.00    +0.222 HD
ENDBRANCH  27  31
ENDBRANCH  26  27
ENDBRANCH  25  26
ENDBRANCH   1  25
TORSDOF 10
ENDMDL
MODEL 5
REMARK VINA RESULT:      -6.5      1.346      2.137
REMARK  Name = 44468355
REMARK                            x       y       z     vdW  Elec       q    Type
REMARK                         _______ _______ _______ _____ _____    ______ ____
ROOT
ATOM      1  C   LIG    1       22.353  31.973  62.845  0.00  0.00    +0.178 C 
ATOM      2  C   LIG    1       23.161  32.223  62.313  0.00  0.00    +0.181 C 
ATOM      3  C   LIG    1       23.911  31.619  62.587  0.00  0.00    +0.139 C 
ATOM      4  C   LIG    1       24.810  31.187  62.647  0.00  0.00    +0.048 C 
ATOM      5  C   LIG    1       23.565  30.996  63.289  0.00  0.00    +0.228 C 
ATOM      6  O   LIG    1       22.602  31.215  63.448  0.00  0.00    -0.343 OA
ENDROOT
BRANCH   5   7
ATOM      7  C   LIG    1       24.465  30.564  63.349  0.00  0.00    +0.092 A 
ATOM      8  C   LIG    1       24.795  29.822  62.776  0.00  0.00    +0.029 A 
ATOM      9  C   LIG    1       25.720  29.599  63.063  0.00  0.00    +0.033 A 
ATOM     10  C   LIG    1       25.965  30.203  63.813  0.00  0.00    +0.105 A 
ATOM     11  C   LIG    1       26.796  30.288  64.362  0.00  0.00    +0.144 A 
ATOM     12  N   LIG    1       26.847  30.973  65.089  0.00  0.00    -0.217 NA
ATOM     13  C   LIG    1       26.068  31.572  65.267  0.00  0.00    +0.245 A 
ATOM     14  N   LIG    1       25.237  31.487  64.718  0.00  0.00    -0.154 NA
ATOM     15  N   LIG    1       25.185  30.802  63.991  0.00  0.00    -0.228 N 
BRANCH  11  16
ATOM     16  N   LIG    1       27.577  29.687  64.184  0.00  0.00    -0.341 N 
ATOM     17  H   LIG    1       28.114  29.928  63.991  0.00  0.00    +0.144 HD
ATOM     18  H   LIG    1       27.522  29.076  64.268  0.00  0.00    +0.144 HD
ENDBRANCH  11  16
ENDBRANCH   5   7
BRANCH   5  19
ATOM     19  C   LIG    1       23.514  30.271  63.975  0.00  0.00    +0.107 C 
ATOM     20  N   LIG    1       23.462  29.545  64.661  0.00  0.00    -0.193 NA
ENDBRANCH   5  19
BRANCH   3  21
ATOM     21  O   LIG    1       24.518  32.078  61.938  0.00  0.00    -0.382 OA
ATOM     22  H   LIG    1       24.503  32.696  61.883  0.00  0.00    +0.210 HD
ENDBRANCH   3  21
BRANCH   2  23
ATOM     23  O   LIG    1       23.212  32.948  61.626  0.00  0.00    -0.386 OA
ATOM     24  H   LIG    1       23.656  33.379  61.664  0.00  0.00    +0.210 HD
ENDBRANCH   2  23
BRANCH   1  25
ATOM     25  C   LIG    1       21.454  32.405  62.785  0.00  0.00    +0.206 C 
BRANCH  25  26
ATOM     26  O   LIG    1       20.661  31.872  62.485  0.00  0.00    -0.284 OA
BRANCH  26  27
ATOM     27  P   LIG    1       19.753  32.290  62.470  0.00  0.00    +0.472 P 
ATOM     28  O   LIG    1       19.952  32.688  61.574  0.00  0.00    -0.228 OA
BRANCH  27  29
ATOM     29  O   LIG    1       19.556  31.892  63.366  0.00  0.00    -0.303 OA
ATOM     30  H   LIG    1       19.304  31.327  63.406  0.00  0.00    +0.222 HD
ENDBRANCH  27  29
BRANCH  27  31
ATOM     31  O   LIG    1       18.845  32.708  62.454  0.00  0.00    -0.303 OA
ATOM     32  H   LIG    1       18.788  33.318  62.360  0.00  0.00    +0.222 HD
ENDBRANCH  27  31
ENDBRANCH  26  27
ENDBRANCH  25  26
ENDBRANCH   1  25
TORSDOF 10
ENDMDL
MODEL 6
REMARK VINA RESULT:      -6.3      4.031      6.222
REMARK  Name = 44468355
REMARK                            x       y       z     vdW  Elec       q    Type
REMARK                         _______ _______ _______ _____ _____    ______ ____
ROOT
ATOM      1  C   LIG    1       22.296  30.781  63.151  0.00  0.00    +0.178 C 
ATOM      2  C   LIG    1       21.532  30.576  63.763  0.00  0.00    +0.181 C 
ATOM      3  C   LIG    1       20.809  31.246  63.592  0.00  0.00    +0.139 C 
ATOM      4  C   LIG    1       19.948  31.750  63.645  0.00  0.00    +0.048 C 
ATOM      5  C   LIG    1       21.127  31.866  62.874  0.00  0.00    +0.228 C 
ATOM      6  O   LIG    1       22.045  31.578  62.601  0.00  0.00    -0.343 OA
ENDROOT
BRANCH   5   7
ATOM      7  C   LIG    1       20.264  32.369  62.927  0.00  0.00    +0.092 A 
ATOM      8  C   LIG    1       19.432  32.153  62.430  0.00  0.00    +0.029 A 
ATOM      9  C   LIG    1       18.740  32.822  62.680  0.00  0.00    +0.033 A 
ATOM     10  C   LIG    1       19.144  33.454  63.333  0.00  0.00    +0.105 A 
ATOM     11  C   LIG    1       18.776  34.251  63.811  0.00  0.00    +0.144 A 
ATOM     12  N   LIG    1       19.355  34.767  64.443  0.00  0.00    -0.217 NA
ATOM     13  C   LIG    1       20.301  34.486  64.596  0.00  0.00    +0.245 A 
ATOM     14  N   LIG    1       20.670  33.688  64.118  0.00  0.00    -0.154 NA
ATOM     15  N   LIG    1       20.091  33.172  63.486  0.00  0.00    -0.228 N 
BRANCH  11  16
ATOM     16  N   LIG    1       17.828  34.533  63.658  0.00  0.00    -0.341 N 
ATOM     17  H   LIG    1       17.519  34.832  64.103  0.00  0.00    +0.144 HD
ATOM     18  H   LIG    1       17.552  34.408  63.117  0.00  0.00    +0.144 HD
ENDBRANCH  11  16
ENDBRANCH   5   7
BRANCH   5  19
ATOM     19  C   LIG    1       21.163  32.610  62.207  0.00  0.00    +0.107 C 
ATOM     20  N   LIG    1       21.199  33.355  61.540  0.00  0.00    -0.193 NA
ENDBRANCH   5  19
BRANCH   3  21
ATOM     21  O   LIG    1       20.241  30.813  64.291  0.00  0.00    -0.382 OA
ATOM     22  H   LIG    1       20.476  30.360  64.645  0.00  0.00    +0.210 HD
ENDBRANCH   3  21
BRANCH   2  23
ATOM     23  O   LIG    1       21.497  29.831  64.430  0.00  0.00    -0.386 OA
ATOM     24  H   LIG    1       21.977  29.444  64.487  0.00  0.00    +0.210 HD
ENDBRANCH   2  23
BRANCH   1  25
ATOM     25  C   LIG    1       23.158  30.278  63.098  0.00  0.00    +0.206 C 
BRANCH  25  26
ATOM     26  O   LIG    1       24.022  30.743  63.293  0.00  0.00    -0.284 OA
BRANCH  26  27
ATOM     27  P   LIG    1       24.890  30.298  63.076  0.00  0.00    +0.472 P 
ATOM     28  O   LIG    1       24.749  29.657  63.832  0.00  0.00    -0.228 OA
BRANCH  27  29
ATOM     29  O   LIG    1       25.030  30.938  62.322  0.00  0.00    -0.303 OA
ATOM     30  H   LIG    1       25.526  30.881  61.954  0.00  0.00    +0.222 HD
ENDBRANCH  27  29
BRANCH  27  31
ATOM     31  O   LIG    1       25.759  29.852  62.861  0.00  0.00    -0.303 OA
ATOM     32  H   LIG    1       25.820  29.533  62.332  0.00  0.00    +0.222 HD
ENDBRANCH  27  31
ENDBRANCH  26  27
ENDBRANCH  25  26
ENDBRANCH   1  25
TORSDOF 10
ENDMDL
MODEL 7
REMARK VINA RESULT:      -6.0     14.540     16.330
REMARK  Name = 44468355
REMARK                            x       y       z     vdW  Elec       q    Type
REMARK                         _______ _______ _______ _____ _____    ______ ____
ROOT
ATOM      1  C   LIG    1       11.538  37.903  53.747  0.00  0.00    +0.178 C 
ATOM      2  C   LIG    1       11.037  37.108  54.090  0.00  0.00    +0.181 C 
ATOM      3  C   LIG    1       11.670  36.551  54.629  0.00  0.00    +0.139 C 
ATOM      4  C   LIG    1       12.047  35.821  55.197  0.00  0.00    +0.048 C 
ATOM      5  C   LIG    1       12.563  37.003  54.618  0.00  0.00    +0.228 C 
ATOM      6  O   LIG    1       12.481  37.838  54.073  0.00  0.00    -0.343 OA
ENDROOT
BRANCH   5   7
ATOM      7  C   LIG    1       12.939  36.271  55.187  0.00  0.00    +0.092 A 
ATOM      8  C   LIG    1       13.309  35.409  54.859  0.00  0.00    +0.029 A 
ATOM      9  C   LIG    1       13.608  34.882  55.648  0.00  0.00    +0.033 A 
ATOM     10  C   LIG    1       13.422  35.417  56.465  0.00  0.00    +0.105 A 
ATOM     11  C   LIG    1       13.577  35.234  57.436  0.00  0.00    +0.144 A 
ATOM     12  N   LIG    1       13.315  35.915  58.121  0.00  0.00    -0.217 NA
ATOM     13  C   LIG    1       12.900  36.777  57.834  0.00  0.00    +0.245 A 
ATOM     14  N   LIG    1       12.746  36.960  56.864  0.00  0.00    -0.154 NA
ATOM     15  N   LIG    1       13.007  36.280  56.179  0.00  0.00    -0.228 N 
BRANCH  11  16
ATOM     16  N   LIG    1       13.993  34.370  57.723  0.00  0.00    -0.341 N 
ATOM     17  H   LIG    1       14.588  34.257  57.596  0.00  0.00    +0.144 HD
ATOM     18  H   LIG    1       13.654  33.950  58.026  0.00  0.00    +0.144 HD
ENDBRANCH  11  16
ENDBRANCH   5   7
BRANCH   5  19
ATOM     19  C   LIG    1       13.528  37.206  54.784  0.00  0.00    +0.107 C 
ATOM     20  N   LIG    1       14.493  37.410  54.950  0.00  0.00    -0.193 NA
ENDBRANCH   5  19
BRANCH   3  21
ATOM     21  O   LIG    1       10.938  35.897  54.814  0.00  0.00    -0.382 OA
ATOM     22  H   LIG    1       10.936  35.575  55.345  0.00  0.00    +0.210 HD
ENDBRANCH   3  21
BRANCH   2  23
ATOM     23  O   LIG    1       10.072  36.905  53.924  0.00  0.00    -0.386 OA
ATOM     24  H   LIG    1        9.913  36.411  53.586  0.00  0.00    +0.210 HD
ENDBRANCH   2  23
BRANCH   1  25
ATOM     25  C   LIG    1       11.162  38.633  53.178  0.00  0.00    +0.206 C 
BRANCH  25  26
ATOM     26  O   LIG    1       11.300  39.590  53.436  0.00  0.00    -0.284 OA
BRANCH  26  27
ATOM     27  P   LIG    1       11.195  40.313  52.754  0.00  0.00    +0.472 P 
ATOM     28  O   LIG    1       10.203  40.292  52.885  0.00  0.00    -0.228 OA
BRANCH  27  29
ATOM     29  O   LIG    1       12.186  40.334  52.623  0.00  0.00    -0.303 OA
ATOM     30  H   LIG    1       12.510  39.806  52.621  0.00  0.00    +0.222 HD
ENDBRANCH  27  29
BRANCH  27  31
ATOM     31  O   LIG    1       11.088  41.036  52.072  0.00  0.00    -0.303 OA
ATOM     32  H   LIG    1       10.532  41.296  51.981  0.00  0.00    +0.222 HD
ENDBRANCH  27  31
ENDBRANCH  26  27
ENDBRANCH  25  26
ENDBRANCH   1  25
TORSDOF 10
ENDMDL
MODEL 8
REMARK VINA RESULT:      -5.9     15.109     17.617
REMARK  Name = 44468355
REMARK                            x       y       z     vdW  Elec       q    Type
REMARK                         _______ _______ _______ _____ _____    ______ ____
ROOT
ATOM      1  C   LIG    1       13.006  37.078  55.470  0.00  0.00    +0.178 C 
ATOM      2  C   LIG    1       13.337  37.373  54.573  0.00  0.00    +0.181 C 
ATOM      3  C   LIG    1       12.540  37.577  54.002  0.00  0.00    +0.139 C 
ATOM      4  C   LIG    1       11.971  37.847  53.226  0.00  0.00    +0.048 C 
ATOM      5  C   LIG    1       11.719  37.409  54.547  0.00  0.00    +0.228 C 
ATOM      6  O   LIG    1       12.006  37.100  55.453  0.00  0.00    -0.343 OA
ENDROOT
BRANCH   5   7
ATOM      7  C   LIG    1       11.149  37.679  53.770  0.00  0.00    +0.092 A 
ATOM      8  C   LIG    1       10.832  37.079  53.044  0.00  0.00    +0.029 A 
ATOM      9  C   LIG    1       10.287  37.621  52.412  0.00  0.00    +0.033 A 
ATOM     10  C   LIG    1       10.268  38.557  52.746  0.00  0.00    +0.105 A 
ATOM     11  C   LIG    1        9.832  39.385  52.395  0.00  0.00    +0.144 A 
ATOM     12  N   LIG    1        9.932  40.250  52.887  0.00  0.00    -0.217 NA
ATOM     13  C   LIG    1       10.467  40.286  53.730  0.00  0.00    +0.245 A 
ATOM     14  N   LIG    1       10.903  39.457  54.081  0.00  0.00    -0.154 NA
ATOM     15  N   LIG    1       10.803  38.593  53.589  0.00  0.00    -0.228 N 
BRANCH  11  16
ATOM     16  N   LIG    1        9.296  39.349  51.550  0.00  0.00    -0.341 N 
ATOM     17  H   LIG    1        8.751  39.642  51.517  0.00  0.00    +0.144 HD
ATOM     18  H   LIG    1        9.510  39.034  51.062  0.00  0.00    +0.144 HD
ENDBRANCH  11  16
ENDBRANCH   5   7
BRANCH   5  19
ATOM     19  C   LIG    1       10.761  37.332  54.824  0.00  0.00    +0.107 C 
ATOM     20  N   LIG    1        9.803  37.254  55.103  0.00  0.00    -0.193 NA
ENDBRANCH   5  19
BRANCH   3  21
ATOM     21  O   LIG    1       13.146  37.821  53.244  0.00  0.00    -0.382 OA
ATOM     22  H   LIG    1       13.759  37.856  53.336  0.00  0.00    +0.210 HD
ENDBRANCH   3  21
BRANCH   2  23
ATOM     23  O   LIG    1       14.294  37.450  54.295  0.00  0.00    -0.386 OA
ATOM     24  H   LIG    1       14.744  37.267  54.680  0.00  0.00    +0.210 HD
ENDBRANCH   2  23
BRANCH   1  25
ATOM     25  C   LIG    1       13.575  36.809  56.245  0.00  0.00    +0.206 C 
BRANCH  25  26
ATOM     26  O   LIG    1       13.549  35.867  56.582  0.00  0.00    -0.284 OA
BRANCH  26  27
ATOM     27  P   LIG    1       14.075  35.610  57.392  0.00  0.00    +0.472 P 
ATOM     28  O   LIG    1       14.901  35.537  56.832  0.00  0.00    -0.228 OA
BRANCH  27  29
ATOM     29  O   LIG    1       13.250  35.683  57.952  0.00  0.00    -0.303 OA
ATOM     30  H   LIG    1       12.988  35.173  58.185  0.00  0.00    +0.222 HD
ENDBRANCH  27  29
BRANCH  27  31
ATOM     31  O   LIG    1       14.603  35.352  58.202  0.00  0.00    -0.303 OA
ATOM     32  H   LIG    1       14.664  34.754  58.354  0.00  0.00    +0.222 HD
ENDBRANCH  27  31
ENDBRANCH  26  27
ENDBRANCH  25  26
ENDBRANCH   1  25
TORSDOF 10
ENDMDL
MODEL 9
REMARK VINA RESULT:      -5.8     13.879     15.998
REMARK  Name = 44468355
REMARK                            x       y       z     vdW  Elec       q    Type
REMARK                         _______ _______ _______ _____ _____    ______ ____
ROOT
ATOM      1  C   LIG    1       12.187  37.733  54.131  0.00  0.00    +0.178 C 
ATOM      2  C   LIG    1       13.159  37.575  54.303  0.00  0.00    +0.181 C 
ATOM      3  C   LIG    1       13.241  37.028  55.137  0.00  0.00    +0.139 C 
ATOM      4  C   LIG    1       13.625  36.512  55.902  0.00  0.00    +0.048 C 
ATOM      5  C   LIG    1       12.318  36.850  55.480  0.00  0.00    +0.228 C 
ATOM      6  O   LIG    1       11.667  37.285  54.858  0.00  0.00    -0.343 OA
ENDROOT
BRANCH   5   7
ATOM      7  C   LIG    1       12.703  36.334  56.246  0.00  0.00    +0.092 A 
ATOM      8  C   LIG    1       12.997  36.714  57.115  0.00  0.00    +0.029 A 
ATOM      9  C   LIG    1       13.335  35.968  57.679  0.00  0.00    +0.033 A 
ATOM     10  C   LIG    1       13.250  35.125  57.159  0.00  0.00    +0.105 A 
ATOM     11  C   LIG    1       13.479  34.176  57.378  0.00  0.00    +0.144 A 
ATOM     12  N   LIG    1       13.314  33.455  56.705  0.00  0.00    -0.217 NA
ATOM     13  C   LIG    1       12.922  33.682  55.815  0.00  0.00    +0.245 A 
ATOM     14  N   LIG    1       12.693  34.631  55.596  0.00  0.00    -0.154 NA
ATOM     15  N   LIG    1       12.858  35.352  56.269  0.00  0.00    -0.228 N 
BRANCH  11  16
ATOM     16  N   LIG    1       13.872  33.948  58.269  0.00  0.00    -0.341 N 
ATOM     17  H   LIG    1       13.504  33.751  58.728  0.00  0.00    +0.144 HD
ATOM     18  H   LIG    1       14.482  34.006  58.362  0.00  0.00    +0.144 HD
ENDBRANCH  11  16
ENDBRANCH   5   7
BRANCH   5  19
ATOM     19  C   LIG    1       11.560  36.521  56.042  0.00  0.00    +0.107 C 
ATOM     20  N   LIG    1       10.801  36.192  56.605  0.00  0.00    -0.193 NA
ENDBRANCH   5  19
BRANCH   3  21
ATOM     21  O   LIG    1       14.237  37.039  55.047  0.00  0.00    -0.382 OA
ATOM     22  H   LIG    1       14.498  36.966  54.490  0.00  0.00    +0.210 HD
ENDBRANCH   3  21
BRANCH   2  23
ATOM     23  O   LIG    1       13.918  37.904  53.740  0.00  0.00    -0.386 OA
ATOM     24  H   LIG    1       14.204  37.517  53.349  0.00  0.00    +0.210 HD
ENDBRANCH   2  23
BRANCH   1  25
ATOM     25  C   LIG    1       11.803  38.249  53.365  0.00  0.00    +0.206 C 
BRANCH  25  26
ATOM     26  O   LIG    1       11.385  39.144  53.525  0.00  0.00    -0.284 OA
BRANCH  26  27
ATOM     27  P   LIG    1       10.971  39.645  52.766  0.00  0.00    +0.472 P 
ATOM     28  O   LIG    1       11.817  40.167  52.648  0.00  0.00    -0.228 OA
BRANCH  27  29
ATOM     29  O   LIG    1       10.126  39.124  52.883  0.00  0.00    -0.303 OA
ATOM     30  H   LIG    1        9.738  39.263  53.346  0.00  0.00    +0.222 HD
ENDBRANCH  27  29
BRANCH  27  31
ATOM     31  O   LIG    1       10.557  40.148  52.006  0.00  0.00    -0.303 OA
ATOM     32  H   LIG    1        9.951  40.087  51.890  0.00  0.00    +0.222 HD
ENDBRANCH  27  31
ENDBRANCH  26  27
ENDBRANCH  25  26
ENDBRANCH   1  25
TORSDOF 10
ENDMDL
