MODEL 1
REMARK VINA RESULT:      -8.7      0.000      0.000
REMARK  Name = 44468216
REMARK                            x       y       z     vdW  Elec       q    Type
REMARK                         _______ _______ _______ _____ _____    ______ ____
ROOT
ATOM      1  O   LIG    1       19.562  41.704  52.971  0.00  0.00    -0.343 OA
ATOM      2  C   LIG    1       19.890  42.376  52.306  0.00  0.00    +0.177 C 
ATOM      3  C   LIG    1       20.329  43.120  52.811  0.00  0.00    +0.178 C 
ATOM      4  C   LIG    1       20.272  42.908  53.786  0.00  0.00    +0.198 C 
ATOM      5  C   LIG    1       19.799  42.033  53.885  0.00  0.00    +0.225 C 
ENDROOT
BRANCH   5   6
ATOM      6  C   LIG    1       19.377  41.219  54.287  0.00  0.00    +0.092 A 
ATOM      7  C   LIG    1       18.547  41.202  54.832  0.00  0.00    +0.029 A 
ATOM      8  C   LIG    1       18.370  40.259  55.094  0.00  0.00    +0.033 A 
ATOM      9  C   LIG    1       19.091  39.692  54.712  0.00  0.00    +0.105 A 
ATOM     10  C   LIG    1       19.263  38.708  54.752  0.00  0.00    +0.144 A 
ATOM     11  N   LIG    1       20.061  38.320  54.292  0.00  0.00    -0.217 NA
ATOM     12  C   LIG    1       20.688  38.917  53.790  0.00  0.00    +0.245 A 
ATOM     13  N   LIG    1       20.516  39.901  53.749  0.00  0.00    -0.154 NA
ATOM     14  N   LIG    1       19.717  40.289  54.210  0.00  0.00    -0.228 N 
BRANCH  10  15
ATOM     15  N   LIG    1       18.636  38.111  55.254  0.00  0.00    -0.341 N 
ATOM     16  H   LIG    1       18.717  38.017  55.861  0.00  0.00    +0.144 HD
ATOM     17  H   LIG    1       18.167  37.835  54.957  0.00  0.00    +0.144 HD
ENDBRANCH  10  15
ENDBRANCH   5   6
BRANCH   4  18
ATOM     18  O   LIG    1       20.628  43.472  54.532  0.00  0.00    -0.385 OA
ATOM     19  H   LIG    1       20.537  44.086  54.526  0.00  0.00    +0.210 HD
ENDBRANCH   4  18
BRANCH   3  20
ATOM     20  O   LIG    1       20.750  43.933  52.409  0.00  0.00    -0.386 OA
ATOM     21  H   LIG    1       21.122  44.291  52.752  0.00  0.00    +0.210 HD
ENDBRANCH   3  20
BRANCH   5  22
ATOM     22  C   LIG    1       19.894  42.095  54.879  0.00  0.00    +0.107 C 
ATOM     23  N   LIG    1       19.989  42.156  55.872  0.00  0.00    -0.193 NA
ENDBRANCH   5  22
BRANCH   2  24
ATOM     24  C   LIG    1       19.795  42.315  51.313  0.00  0.00    +0.190 C 
BRANCH  24  25
ATOM     25  O   LIG    1       19.973  41.449  50.846  0.00  0.00    -0.392 OA
ATOM     26  H   LIG    1       19.527  41.019  50.810  0.00  0.00    +0.210 HD
ENDBRANCH  24  25
ENDBRANCH   2  24
TORSDOF 7
ENDMDL
MODEL 2
REMARK VINA RESULT:      -8.6      1.143      2.510
REMARK  Name = 44468216
REMARK                            x       y       z     vdW  Elec       q    Type
REMARK                         _______ _______ _______ _____ _____    ______ ____
ROOT
ATOM      1  O   LIG    1       20.062  42.388  53.891  0.00  0.00    -0.343 OA
ATOM      2  C   LIG    1       19.892  43.373  53.855  0.00  0.00    +0.177 C 
ATOM      3  C   LIG    1       19.720  43.622  52.902  0.00  0.00    +0.178 C 
ATOM      4  C   LIG    1       19.784  42.791  52.349  0.00  0.00    +0.198 C 
ATOM      5  C   LIG    1       19.995  42.028  52.960  0.00  0.00    +0.225 C 
ENDROOT
BRANCH   5   6
ATOM      6  C   LIG    1       20.196  41.109  53.301  0.00  0.00    +0.092 A 
ATOM      7  C   LIG    1       21.023  40.588  53.120  0.00  0.00    +0.029 A 
ATOM      8  C   LIG    1       20.944  39.713  53.586  0.00  0.00    +0.033 A 
ATOM      9  C   LIG    1       20.068  39.691  54.055  0.00  0.00    +0.105 A 
ATOM     10  C   LIG    1       19.628  38.996  54.623  0.00  0.00    +0.144 A 
ATOM     11  N   LIG    1       18.724  39.167  55.014  0.00  0.00    -0.217 NA
ATOM     12  C   LIG    1       18.259  40.035  54.837  0.00  0.00    +0.245 A 
ATOM     13  N   LIG    1       18.699  40.731  54.269  0.00  0.00    -0.154 NA
ATOM     14  N   LIG    1       19.603  40.559  53.878  0.00  0.00    -0.228 N 
BRANCH  10  15
ATOM     15  N   LIG    1       20.093  38.128  54.800  0.00  0.00    -0.341 N 
ATOM     16  H   LIG    1       20.710  38.093  54.758  0.00  0.00    +0.144 HD
ATOM     17  H   LIG    1       19.763  37.625  54.952  0.00  0.00    +0.144 HD
ENDBRANCH  10  15
ENDBRANCH   5   6
BRANCH   4  18
ATOM     18  O   LIG    1       19.659  42.733  51.359  0.00  0.00    -0.385 OA
ATOM     19  H   LIG    1       19.963  43.123  50.984  0.00  0.00    +0.210 HD
ENDBRANCH   4  18
BRANCH   3  20
ATOM     20  O   LIG    1       19.520  44.540  52.562  0.00  0.00    -0.386 OA
ATOM     21  H   LIG    1       19.959  44.864  52.267  0.00  0.00    +0.210 HD
ENDBRANCH   3  20
BRANCH   5  22
ATOM     22  C   LIG    1       19.994  41.403  52.180  0.00  0.00    +0.107 C 
ATOM     23  N   LIG    1       19.992  40.777  51.400  0.00  0.00    -0.193 NA
ENDBRANCH   5  22
BRANCH   2  24
ATOM     24  C   LIG    1       19.893  43.998  54.636  0.00  0.00    +0.190 C 
BRANCH  24  25
ATOM     25  O   LIG    1       20.708  44.080  55.209  0.00  0.00    -0.392 OA
ATOM     26  H   LIG    1       20.919  43.587  55.519  0.00  0.00    +0.210 HD
ENDBRANCH  24  25
ENDBRANCH   2  24
TORSDOF 7
ENDMDL
MODEL 3
REMARK VINA RESULT:      -7.6      2.176      4.158
REMARK  Name = 44468216
REMARK                            x       y       z     vdW  Elec       q    Type
REMARK                         _______ _______ _______ _____ _____    ______ ____
ROOT
ATOM      1  O   LIG    1       19.150  40.289  54.124  0.00  0.00    -0.343 OA
ATOM      2  C   LIG    1       19.078  39.403  54.581  0.00  0.00    +0.177 C 
ATOM      3  C   LIG    1       19.890  38.868  54.346  0.00  0.00    +0.178 C 
ATOM      4  C   LIG    1       20.463  39.423  53.744  0.00  0.00    +0.198 C 
ATOM      5  C   LIG    1       20.006  40.302  53.606  0.00  0.00    +0.225 C 
ENDROOT
BRANCH   5   6
ATOM      6  C   LIG    1       19.803  41.231  53.294  0.00  0.00    +0.092 A 
ATOM      7  C   LIG    1       19.498  41.485  52.383  0.00  0.00    +0.029 A 
ATOM      8  C   LIG    1       19.377  42.472  52.363  0.00  0.00    +0.033 A 
ATOM      9  C   LIG    1       19.606  42.829  53.262  0.00  0.00    +0.105 A 
ATOM     10  C   LIG    1       19.609  43.757  53.635  0.00  0.00    +0.144 A 
ATOM     11  N   LIG    1       19.877  43.914  54.585  0.00  0.00    -0.217 NA
ATOM     12  C   LIG    1       20.142  43.142  55.163  0.00  0.00    +0.245 A 
ATOM     13  N   LIG    1       20.139  42.214  54.791  0.00  0.00    -0.154 NA
ATOM     14  N   LIG    1       19.871  42.058  53.841  0.00  0.00    -0.228 N 
BRANCH  10  15
ATOM     15  N   LIG    1       19.345  44.529  53.056  0.00  0.00    -0.341 N 
ATOM     16  H   LIG    1       18.993  44.434  52.555  0.00  0.00    +0.144 HD
ATOM     17  H   LIG    1       19.532  45.102  53.199  0.00  0.00    +0.144 HD
ENDBRANCH  10  15
ENDBRANCH   5   6
BRANCH   4  18
ATOM     18  O   LIG    1       21.339  39.149  53.348  0.00  0.00    -0.385 OA
ATOM     19  H   LIG    1       21.868  39.378  53.578  0.00  0.00    +0.210 HD
ENDBRANCH   4  18
BRANCH   3  20
ATOM     20  O   LIG    1       20.092  37.940  54.658  0.00  0.00    -0.386 OA
ATOM     21  H   LIG    1       20.109  37.814  55.265  0.00  0.00    +0.210 HD
ENDBRANCH   3  20
BRANCH   5  22
ATOM     22  C   LIG    1       20.757  40.601  53.018  0.00  0.00    +0.107 C 
ATOM     23  N   LIG    1       21.508  40.900  52.429  0.00  0.00    -0.193 NA
ENDBRANCH   5  22
BRANCH   2  24
ATOM     24  C   LIG    1       18.327  39.104  55.170  0.00  0.00    +0.190 C 
BRANCH  24  25
ATOM     25  O   LIG    1       17.505  38.703  54.766  0.00  0.00    -0.392 OA
ATOM     26  H   LIG    1       17.008  38.594  55.120  0.00  0.00    +0.210 HD
ENDBRANCH  24  25
ENDBRANCH   2  24
TORSDOF 7
ENDMDL
MODEL 4
REMARK VINA RESULT:      -6.9      2.176      3.940
REMARK  Name = 44468216
REMARK                            x       y       z     vdW  Elec       q    Type
REMARK                         _______ _______ _______ _____ _____    ______ ____
ROOT
ATOM      1  O   LIG    1       20.334  40.648  53.469  0.00  0.00    -0.343 OA
ATOM      2  C   LIG    1       20.023  39.727  53.703  0.00  0.00    +0.177 C 
ATOM      3  C   LIG    1       19.447  39.792  54.518  0.00  0.00    +0.178 C 
ATOM      4  C   LIG    1       19.401  40.754  54.788  0.00  0.00    +0.198 C 
ATOM      5  C   LIG    1       19.949  41.283  54.140  0.00  0.00    +0.225 C 
ENDROOT
BRANCH   5   6
ATOM      6  C   LIG    1       20.401  42.046  53.676  0.00  0.00    +0.092 A 
ATOM      7  C   LIG    1       21.180  42.559  54.021  0.00  0.00    +0.029 A 
ATOM      8  C   LIG    1       21.412  43.255  53.349  0.00  0.00    +0.033 A 
ATOM      9  C   LIG    1       20.777  43.173  52.589  0.00  0.00    +0.105 A 
ATOM     10  C   LIG    1       20.686  43.684  51.734  0.00  0.00    +0.144 A 
ATOM     11  N   LIG    1       19.966  43.444  51.082  0.00  0.00    -0.217 NA
ATOM     12  C   LIG    1       19.338  42.693  51.286  0.00  0.00    +0.245 A 
ATOM     13  N   LIG    1       19.430  42.182  52.140  0.00  0.00    -0.154 NA
ATOM     14  N   LIG    1       20.149  42.422  52.792  0.00  0.00    -0.228 N 
BRANCH  10  15
ATOM     15  N   LIG    1       21.314  44.436  51.531  0.00  0.00    -0.341 N 
ATOM     16  H   LIG    1       21.206  44.807  51.046  0.00  0.00    +0.144 HD
ATOM     17  H   LIG    1       21.811  44.529  51.889  0.00  0.00    +0.144 HD
ENDBRANCH  10  15
ENDBRANCH   5   6
BRANCH   4  18
ATOM     18  O   LIG    1       18.896  41.122  55.568  0.00  0.00    -0.385 OA
ATOM     19  H   LIG    1       18.294  40.991  55.637  0.00  0.00    +0.210 HD
ENDBRANCH   4  18
BRANCH   3  20
ATOM     20  O   LIG    1       18.996  39.030  54.981  0.00  0.00    -0.386 OA
ATOM     21  H   LIG    1       18.477  39.128  55.305  0.00  0.00    +0.210 HD
ENDBRANCH   3  20
BRANCH   5  22
ATOM     22  C   LIG    1       19.723  42.122  54.634  0.00  0.00    +0.107 C 
ATOM     23  N   LIG    1       19.497  42.962  55.129  0.00  0.00    -0.193 NA
ENDBRANCH   5  22
BRANCH   2  24
ATOM     24  C   LIG    1       20.250  38.887  53.209  0.00  0.00    +0.190 C 
BRANCH  24  25
ATOM     25  O   LIG    1       20.038  38.808  52.235  0.00  0.00    -0.392 OA
ATOM     26  H   LIG    1       20.463  38.588  51.842  0.00  0.00    +0.210 HD
ENDBRANCH  24  25
ENDBRANCH   2  24
TORSDOF 7
ENDMDL
MODEL 5
REMARK VINA RESULT:      -6.1     11.976     12.911
REMARK  Name = 44468216
REMARK                            x       y       z     vdW  Elec       q    Type
REMARK                         _______ _______ _______ _____ _____    ______ ____
ROOT
ATOM      1  O   LIG    1       19.010  31.950  62.113  0.00  0.00    -0.343 OA
ATOM      2  C   LIG    1       18.023  31.794  62.069  0.00  0.00    +0.177 C 
ATOM      3  C   LIG    1       17.576  32.469  62.656  0.00  0.00    +0.178 C 
ATOM      4  C   LIG    1       18.287  33.043  63.063  0.00  0.00    +0.198 C 
ATOM      5  C   LIG    1       19.173  32.723  62.728  0.00  0.00    +0.225 C 
ENDROOT
BRANCH   5   6
ATOM      6  C   LIG    1       20.158  32.636  62.575  0.00  0.00    +0.092 A 
ATOM      7  C   LIG    1       20.713  33.231  62.005  0.00  0.00    +0.029 A 
ATOM      8  C   LIG    1       21.652  32.905  62.042  0.00  0.00    +0.033 A 
ATOM      9  C   LIG    1       21.679  32.108  62.635  0.00  0.00    +0.105 A 
ATOM     10  C   LIG    1       22.427  31.509  62.920  0.00  0.00    +0.144 A 
ATOM     11  N   LIG    1       22.246  30.743  63.536  0.00  0.00    -0.217 NA
ATOM     12  C   LIG    1       21.317  30.575  63.868  0.00  0.00    +0.245 A 
ATOM     13  N   LIG    1       20.569  31.175  63.583  0.00  0.00    -0.154 NA
ATOM     14  N   LIG    1       20.750  31.941  62.966  0.00  0.00    -0.228 N 
BRANCH  10  15
ATOM     15  N   LIG    1       23.355  31.676  62.589  0.00  0.00    -0.341 N 
ATOM     16  H   LIG    1       23.785  31.232  62.635  0.00  0.00    +0.144 HD
ATOM     17  H   LIG    1       23.501  32.224  62.337  0.00  0.00    +0.144 HD
ENDBRANCH  10  15
ENDBRANCH   5   6
BRANCH   4  18
ATOM     18  O   LIG    1       18.138  33.804  63.695  0.00  0.00    -0.385 OA
ATOM     19  H   LIG    1       18.493  34.312  63.657  0.00  0.00    +0.210 HD
ENDBRANCH   4  18
BRANCH   3  20
ATOM     20  O   LIG    1       16.592  32.555  62.809  0.00  0.00    -0.386 OA
ATOM     21  H   LIG    1       16.241  32.046  62.859  0.00  0.00    +0.210 HD
ENDBRANCH   3  20
BRANCH   5  22
ATOM     22  C   LIG    1       19.632  33.430  63.265  0.00  0.00    +0.107 C 
ATOM     23  N   LIG    1       20.091  34.138  63.802  0.00  0.00    -0.193 NA
ENDBRANCH   5  22
BRANCH   2  24
ATOM     24  C   LIG    1       17.564  31.086  61.532  0.00  0.00    +0.190 C 
BRANCH  24  25
ATOM     25  O   LIG    1       17.434  31.211  60.549  0.00  0.00    -0.392 OA
ATOM     26  H   LIG    1       16.863  31.195  60.307  0.00  0.00    +0.210 HD
ENDBRANCH  24  25
ENDBRANCH   2  24
TORSDOF 7
ENDMDL
MODEL 6
REMARK VINA RESULT:      -6.0     14.211     15.790
REMARK  Name = 44468216
REMARK                            x       y       z     vdW  Elec       q    Type
REMARK                         _______ _______ _______ _____ _____    ______ ____
ROOT
ATOM      1  O   LIG    1       24.800  29.973  63.205  0.00  0.00    -0.343 OA
ATOM      2  C   LIG    1       23.802  29.946  63.159  0.00  0.00    +0.177 C 
ATOM      3  C   LIG    1       23.484  30.824  62.802  0.00  0.00    +0.178 C 
ATOM      4  C   LIG    1       24.286  31.395  62.626  0.00  0.00    +0.198 C 
ATOM      5  C   LIG    1       25.100  30.869  62.875  0.00  0.00    +0.225 C 
ENDROOT
BRANCH   5   6
ATOM      6  C   LIG    1       26.053  30.607  63.030  0.00  0.00    +0.092 A 
ATOM      7  C   LIG    1       26.696  30.309  62.333  0.00  0.00    +0.029 A 
ATOM      8  C   LIG    1       27.565  30.116  62.778  0.00  0.00    +0.033 A 
ATOM      9  C   LIG    1       27.460  30.296  63.750  0.00  0.00    +0.105 A 
ATOM     10  C   LIG    1       28.097  30.223  64.518  0.00  0.00    +0.144 A 
ATOM     11  N   LIG    1       27.794  30.454  65.442  0.00  0.00    -0.217 NA
ATOM     12  C   LIG    1       26.855  30.760  65.599  0.00  0.00    +0.245 A 
ATOM     13  N   LIG    1       26.218  30.833  64.831  0.00  0.00    -0.154 NA
ATOM     14  N   LIG    1       26.521  30.601  63.907  0.00  0.00    -0.228 N 
BRANCH  10  15
ATOM     15  N   LIG    1       29.036  29.917  64.361  0.00  0.00    -0.341 N 
ATOM     16  H   LIG    1       29.451  29.941  64.821  0.00  0.00    +0.144 HD
ATOM     17  H   LIG    1       29.204  29.704  63.803  0.00  0.00    +0.144 HD
ENDBRANCH  10  15
ENDBRANCH   5   6
BRANCH   4  18
ATOM     18  O   LIG    1       24.277  32.327  62.266  0.00  0.00    -0.385 OA
ATOM     19  H   LIG    1       24.774  32.692  62.336  0.00  0.00    +0.210 HD
ENDBRANCH   4  18
BRANCH   3  20
ATOM     20  O   LIG    1       22.532  31.085  62.647  0.00  0.00    -0.386 OA
ATOM     21  H   LIG    1       22.133  30.674  62.409  0.00  0.00    +0.210 HD
ENDBRANCH   3  20
BRANCH   5  22
ATOM     22  C   LIG    1       25.679  31.640  62.610  0.00  0.00    +0.107 C 
ATOM     23  N   LIG    1       26.258  32.411  62.345  0.00  0.00    -0.193 NA
ENDBRANCH   5  22
BRANCH   2  24
ATOM     24  C   LIG    1       23.223  29.175  63.424  0.00  0.00    +0.190 C 
BRANCH  24  25
ATOM     25  O   LIG    1       23.112  28.942  64.390  0.00  0.00    -0.392 OA
ATOM     26  H   LIG    1       23.541  29.116  64.802  0.00  0.00    +0.210 HD
ENDBRANCH  24  25
ENDBRANCH   2  24
TORSDOF 7
ENDMDL
MODEL 7
REMARK VINA RESULT:      -6.0     12.335     13.975
REMARK  Name = 44468216
REMARK                            x       y       z     vdW  Elec       q    Type
REMARK                         _______ _______ _______ _____ _____    ______ ____
ROOT
ATOM      1  O   LIG    1       22.075  31.908  62.603  0.00  0.00    -0.343 OA
ATOM      2  C   LIG    1       21.402  32.637  62.478  0.00  0.00    +0.177 C 
ATOM      3  C   LIG    1       21.058  32.899  63.380  0.00  0.00    +0.178 C 
ATOM      4  C   LIG    1       21.520  32.333  64.063  0.00  0.00    +0.198 C 
ATOM      5  C   LIG    1       22.149  31.721  63.583  0.00  0.00    +0.225 C 
ENDROOT
BRANCH   5   6
ATOM      6  C   LIG    1       22.834  31.016  63.397  0.00  0.00    +0.092 A 
ATOM      7  C   LIG    1       22.692  30.034  63.462  0.00  0.00    +0.029 A 
ATOM      8  C   LIG    1       23.545  29.583  63.220  0.00  0.00    +0.033 A 
ATOM      9  C   LIG    1       24.215  30.285  63.005  0.00  0.00    +0.105 A 
ATOM     10  C   LIG    1       25.173  30.234  62.723  0.00  0.00    +0.144 A 
ATOM     11  N   LIG    1       25.689  31.073  62.551  0.00  0.00    -0.217 NA
ATOM     12  C   LIG    1       25.247  31.964  62.661  0.00  0.00    +0.245 A 
ATOM     13  N   LIG    1       24.289  32.015  62.943  0.00  0.00    -0.154 NA
ATOM     14  N   LIG    1       23.773  31.175  63.115  0.00  0.00    -0.228 N 
BRANCH  10  15
ATOM     15  N   LIG    1       25.615  29.344  62.613  0.00  0.00    -0.341 N 
ATOM     16  H   LIG    1       25.401  28.851  62.922  0.00  0.00    +0.144 HD
ATOM     17  H   LIG    1       26.104  29.285  62.236  0.00  0.00    +0.144 HD
ENDBRANCH  10  15
ENDBRANCH   5   6
BRANCH   4  18
ATOM     18  O   LIG    1       21.378  32.372  65.052  0.00  0.00    -0.385 OA
ATOM     19  H   LIG    1       21.371  31.848  65.385  0.00  0.00    +0.210 HD
ENDBRANCH   4  18
BRANCH   3  20
ATOM     20  O   LIG    1       20.374  33.603  63.566  0.00  0.00    -0.386 OA
ATOM     21  H   LIG    1       20.540  34.201  63.577  0.00  0.00    +0.210 HD
ENDBRANCH   3  20
BRANCH   5  22
ATOM     22  C   LIG    1       22.430  31.325  64.457  0.00  0.00    +0.107 C 
ATOM     23  N   LIG    1       22.711  30.929  65.332  0.00  0.00    -0.193 NA
ENDBRANCH   5  22
BRANCH   2  24
ATOM     24  C   LIG    1       21.121  33.033  61.604  0.00  0.00    +0.190 C 
BRANCH  24  25
ATOM     25  O   LIG    1       21.811  33.328  60.944  0.00  0.00    -0.392 OA
ATOM     26  H   LIG    1       21.702  33.273  60.336  0.00  0.00    +0.210 HD
ENDBRANCH  24  25
ENDBRANCH   2  24
TORSDOF 7
ENDMDL
MODEL 8
REMARK VINA RESULT:      -5.9     15.315     16.746
REMARK  Name = 44468216
REMARK                            x       y       z     vdW  Elec       q    Type
REMARK                         _______ _______ _______ _____ _____    ______ ____
ROOT
ATOM      1  O   LIG    1       28.269  30.561  64.457  0.00  0.00    -0.343 OA
ATOM      2  C   LIG    1       29.121  30.462  64.972  0.00  0.00    +0.177 C 
ATOM      3  C   LIG    1       29.285  31.317  65.465  0.00  0.00    +0.178 C 
ATOM      4  C   LIG    1       28.535  31.944  65.254  0.00  0.00    +0.198 C 
ATOM      5  C   LIG    1       27.907  31.477  64.631  0.00  0.00    +0.225 C 
ENDROOT
BRANCH   5   6
ATOM      6  C   LIG    1       27.129  31.284  64.033  0.00  0.00    +0.092 A 
ATOM      7  C   LIG    1       27.032  31.581  63.089  0.00  0.00    +0.029 A 
ATOM      8  C   LIG    1       26.161  31.243  62.748  0.00  0.00    +0.033 A 
ATOM      9  C   LIG    1       25.718  30.737  63.480  0.00  0.00    +0.105 A 
ATOM     10  C   LIG    1       24.844  30.254  63.528  0.00  0.00    +0.144 A 
ATOM     11  N   LIG    1       24.572  29.796  64.374  0.00  0.00    -0.217 NA
ATOM     12  C   LIG    1       25.173  29.822  65.173  0.00  0.00    +0.245 A 
ATOM     13  N   LIG    1       26.047  30.305  65.125  0.00  0.00    -0.154 NA
ATOM     14  N   LIG    1       26.320  30.763  64.278  0.00  0.00    -0.228 N 
BRANCH  10  15
ATOM     15  N   LIG    1       24.243  30.228  62.729  0.00  0.00    -0.341 N 
ATOM     16  H   LIG    1       24.161  29.697  62.420  0.00  0.00    +0.144 HD
ATOM     17  H   LIG    1       23.952  30.743  62.544  0.00  0.00    +0.144 HD
ENDBRANCH  10  15
ENDBRANCH   5   6
BRANCH   4  18
ATOM     18  O   LIG    1       28.431  32.874  65.605  0.00  0.00    -0.385 OA
ATOM     19  H   LIG    1       28.863  33.303  65.480  0.00  0.00    +0.210 HD
ENDBRANCH   4  18
BRANCH   3  20
ATOM     20  O   LIG    1       30.062  31.509  66.062  0.00  0.00    -0.386 OA
ATOM     21  H   LIG    1       30.165  31.154  66.561  0.00  0.00    +0.210 HD
ENDBRANCH   3  20
BRANCH   5  22
ATOM     22  C   LIG    1       27.323  32.289  64.612  0.00  0.00    +0.107 C 
ATOM     23  N   LIG    1       26.739  33.100  64.594  0.00  0.00    -0.193 NA
ENDBRANCH   5  22
BRANCH   2  24
ATOM     24  C   LIG    1       29.705  29.651  64.990  0.00  0.00    +0.190 C 
BRANCH  24  25
ATOM     25  O   LIG    1       30.060  29.271  64.137  0.00  0.00    -0.392 OA
ATOM     26  H   LIG    1       30.419  29.617  63.769  0.00  0.00    +0.210 HD
ENDBRANCH  24  25
ENDBRANCH   2  24
TORSDOF 7
ENDMDL
MODEL 9
REMARK VINA RESULT:      -5.8     11.690     12.982
REMARK  Name = 44468216
REMARK                            x       y       z     vdW  Elec       q    Type
REMARK                         _______ _______ _______ _____ _____    ______ ____
ROOT
ATOM      1  O   LIG    1       19.509  32.387  62.117  0.00  0.00    -0.343 OA
ATOM      2  C   LIG    1       20.450  32.596  62.382  0.00  0.00    +0.177 C 
ATOM      3  C   LIG    1       20.718  31.955  63.102  0.00  0.00    +0.178 C 
ATOM      4  C   LIG    1       19.943  31.350  63.281  0.00  0.00    +0.198 C 
ATOM      5  C   LIG    1       19.195  31.616  62.673  0.00  0.00    +0.225 C 
ENDROOT
BRANCH   5   6
ATOM      6  C   LIG    1       18.307  31.647  62.213  0.00  0.00    +0.092 A 
ATOM      7  C   LIG    1       18.011  31.049  61.476  0.00  0.00    +0.029 A 
ATOM      8  C   LIG    1       17.087  31.311  61.219  0.00  0.00    +0.033 A 
ATOM      9  C   LIG    1       16.810  32.071  61.797  0.00  0.00    +0.105 A 
ATOM     10  C   LIG    1       15.965  32.604  61.844  0.00  0.00    +0.144 A 
ATOM     11  N   LIG    1       15.878  33.345  62.509  0.00  0.00    -0.217 NA
ATOM     12  C   LIG    1       16.636  33.554  63.127  0.00  0.00    +0.245 A 
ATOM     13  N   LIG    1       17.481  33.021  63.080  0.00  0.00    -0.154 NA
ATOM     14  N   LIG    1       17.568  32.280  62.415  0.00  0.00    -0.228 N 
BRANCH  10  15
ATOM     15  N   LIG    1       15.207  32.395  61.226  0.00  0.00    -0.341 N 
ATOM     16  H   LIG    1       15.159  31.830  60.974  0.00  0.00    +0.144 HD
ATOM     17  H   LIG    1       14.785  32.830  61.095  0.00  0.00    +0.144 HD
ENDBRANCH  10  15
ENDBRANCH   5   6
BRANCH   4  18
ATOM     18  O   LIG    1       19.919  30.608  63.951  0.00  0.00    -0.385 OA
ATOM     19  H   LIG    1       19.646  30.069  63.808  0.00  0.00    +0.210 HD
ENDBRANCH   4  18
BRANCH   3  20
ATOM     20  O   LIG    1       21.605  31.925  63.560  0.00  0.00    -0.386 OA
ATOM     21  H   LIG    1       21.654  32.103  64.153  0.00  0.00    +0.210 HD
ENDBRANCH   3  20
BRANCH   5  22
ATOM     22  C   LIG    1       18.623  30.893  63.059  0.00  0.00    +0.107 C 
ATOM     23  N   LIG    1       18.050  30.170  63.446  0.00  0.00    -0.193 NA
ENDBRANCH   5  22
BRANCH   2  24
ATOM     24  C   LIG    1       21.023  33.319  61.996  0.00  0.00    +0.190 C 
BRANCH  24  25
ATOM     25  O   LIG    1       21.442  33.197  61.096  0.00  0.00    -0.392 OA
ATOM     26  H   LIG    1       21.110  32.964  60.628  0.00  0.00    +0.210 HD
ENDBRANCH  24  25
ENDBRANCH   2  24
TORSDOF 7
ENDMDL
