REMARK  Name = 25001248
REMARK                            x       y       z     vdW  Elec       q    Type
REMARK                         _______ _______ _______ _____ _____    ______ ____
ROOT
ATOM      1  C   LIG    1        4.678   0.405   0.000  0.00  0.00    +0.076 A 
ATOM      2  C   LIG    1        5.262   1.209   0.000  0.00  0.00    +0.047 A 
ATOM      3  C   LIG    1        4.678   2.014   0.000  0.00  0.00    +0.082 A 
ATOM      4  C   LIG    1        3.732   1.709   0.000  0.00  0.00    +0.123 A 
ATOM      5  C   LIG    1        2.866   2.209   0.000  0.00  0.00    +0.145 A 
ATOM      6  N   LIG    1        2.000   1.709   0.000  0.00  0.00    -0.217 NA
ATOM      7  C   LIG    1        2.000   0.709   0.000  0.00  0.00    +0.245 A 
ATOM      8  N   LIG    1        2.866   0.209   0.000  0.00  0.00    -0.154 NA
ATOM      9  N   LIG    1        3.732   0.709   0.000  0.00  0.00    -0.228 N 
ENDROOT
BRANCH   1  15
ATOM     10  O   LIG    1        4.403  -1.356   0.000  0.00  0.00    -0.359 OA
ATOM     11  C   LIG    1        4.992  -2.164   0.000  0.00  0.00    +0.176 C 
ATOM     12  C   LIG    1        5.942  -1.853   0.000  0.00  0.00    +0.180 C 
ATOM     13  C   LIG    1        5.941  -0.853   0.000  0.00  0.00    +0.123 C 
ATOM     14  C   LIG    1        6.248   0.098   0.000  0.00  0.00    +0.047 C 
ATOM     15  C   LIG    1        4.989  -0.546   0.000  0.00  0.00    +0.201 C 
BRANCH  13  16
ATOM     16  O   LIG    1        6.941  -0.852   0.000  0.00  0.00    -0.383 OA
ATOM     17  H   LIG    1        7.250  -0.314   0.000  0.00  0.00    +0.210 HD
ENDBRANCH  13  16
BRANCH  12  18
ATOM     18  O   LIG    1        6.752  -2.440   0.000  0.00  0.00    -0.386 OA
ATOM     19  H   LIG    1        6.689  -3.056   0.000  0.00  0.00    +0.210 HD
ENDBRANCH  12  18
BRANCH  11  20
ATOM     20  C   LIG    1        4.684  -3.115   0.000  0.00  0.00    +0.190 C 
BRANCH  20  21
ATOM     21  O   LIG    1        3.707  -3.325   0.000  0.00  0.00    -0.392 OA
ATOM     22  H   LIG    1        3.516  -3.915   0.000  0.00  0.00    +0.210 HD
ENDBRANCH  20  21
ENDBRANCH  11  20
ENDBRANCH   1  15
BRANCH   5  23
ATOM     23  N   LIG    1        2.866   3.209   0.000  0.00  0.00    -0.341 N 
ATOM     24  H   LIG    1        3.403   3.519   0.000  0.00  0.00    +0.144 HD
ATOM     25  H   LIG    1        2.329   3.519   0.000  0.00  0.00    +0.144 HD
ENDBRANCH   5  23
BRANCH   3  26
ATOM     26  C   LIG    1        4.989   2.965   0.000  0.00  0.00    +0.101 C 
ATOM     27  N   LIG    1        5.300   3.915   0.000  0.00  0.00    -0.191 NA
ENDBRANCH   3  26
TORSDOF 7
