REMARK  Name = 25000917
REMARK                            x       y       z     vdW  Elec       q    Type
REMARK                         _______ _______ _______ _____ _____    ______ ____
ROOT
ATOM      1  O   LIG    1        4.403  -1.158   0.000  0.00  0.00    -0.359 OA
ATOM      2  C   LIG    1        4.992  -1.966   0.000  0.00  0.00    +0.176 C 
ATOM      3  C   LIG    1        5.942  -1.655   0.000  0.00  0.00    +0.180 C 
ATOM      4  C   LIG    1        5.941  -0.655   0.000  0.00  0.00    +0.123 C 
ATOM      5  C   LIG    1        6.248   0.296   0.000  0.00  0.00    +0.047 C 
ATOM      6  C   LIG    1        4.989  -0.348   0.000  0.00  0.00    +0.201 C 
ENDROOT
BRANCH   6   7
ATOM      7  C   LIG    1        4.678   0.603   0.000  0.00  0.00    +0.075 A 
ATOM      8  C   LIG    1        5.262   1.407   0.000  0.00  0.00    +0.028 A 
ATOM      9  C   LIG    1        4.678   2.212   0.000  0.00  0.00    +0.033 A 
ATOM     10  C   LIG    1        3.732   1.907   0.000  0.00  0.00    +0.105 A 
ATOM     11  C   LIG    1        2.866   2.407   0.000  0.00  0.00    +0.144 A 
ATOM     12  N   LIG    1        2.000   1.907   0.000  0.00  0.00    -0.217 NA
ATOM     13  C   LIG    1        2.000   0.907   0.000  0.00  0.00    +0.245 A 
ATOM     14  N   LIG    1        2.866   0.407   0.000  0.00  0.00    -0.154 NA
ATOM     15  N   LIG    1        3.732   0.907   0.000  0.00  0.00    -0.229 N 
BRANCH  11  16
ATOM     16  N   LIG    1        2.866   3.407   0.000  0.00  0.00    -0.341 N 
ATOM     17  H   LIG    1        3.403   3.717   0.000  0.00  0.00    +0.144 HD
ATOM     18  H   LIG    1        2.329   3.717   0.000  0.00  0.00    +0.144 HD
ENDBRANCH  11  16
ENDBRANCH   6   7
BRANCH   4  19
ATOM     19  O   LIG    1        6.941  -0.654   0.000  0.00  0.00    -0.383 OA
ATOM     20  H   LIG    1        7.250  -0.116   0.000  0.00  0.00    +0.210 HD
ENDBRANCH   4  19
BRANCH   3  21
ATOM     21  O   LIG    1        6.752  -2.242   0.000  0.00  0.00    -0.386 OA
ATOM     22  H   LIG    1        6.689  -2.858   0.000  0.00  0.00    +0.210 HD
ENDBRANCH   3  21
BRANCH   2  23
ATOM     23  C   LIG    1        4.684  -2.918   0.000  0.00  0.00    +0.190 C 
BRANCH  23  24
ATOM     24  O   LIG    1        3.707  -3.127   0.000  0.00  0.00    -0.392 OA
ATOM     25  H   LIG    1        3.516  -3.717   0.000  0.00  0.00    +0.210 HD
ENDBRANCH  23  24
ENDBRANCH   2  23
TORSDOF 6
