REMARK  Name = 44468216
REMARK                            x       y       z     vdW  Elec       q    Type
REMARK                         _______ _______ _______ _____ _____    ______ ____
ROOT
ATOM      1  O   LIG    1        4.038  -0.714   0.000  0.00  0.00    -0.343 OA
ATOM      2  C   LIG    1        4.040  -1.714   0.000  0.00  0.00    +0.177 C 
ATOM      3  C   LIG    1        4.992  -2.021   0.000  0.00  0.00    +0.178 C 
ATOM      4  C   LIG    1        5.578  -1.211   0.000  0.00  0.00    +0.198 C 
ATOM      5  C   LIG    1        4.989  -0.403   0.000  0.00  0.00    +0.225 C 
ENDROOT
BRANCH   5   6
ATOM      6  C   LIG    1        4.678   0.548   0.000  0.00  0.00    +0.092 A 
ATOM      7  C   LIG    1        5.262   1.352   0.000  0.00  0.00    +0.029 A 
ATOM      8  C   LIG    1        4.678   2.157   0.000  0.00  0.00    +0.033 A 
ATOM      9  C   LIG    1        3.732   1.852   0.000  0.00  0.00    +0.105 A 
ATOM     10  C   LIG    1        2.866   2.352   0.000  0.00  0.00    +0.144 A 
ATOM     11  N   LIG    1        2.000   1.852   0.000  0.00  0.00    -0.217 NA
ATOM     12  C   LIG    1        2.000   0.852   0.000  0.00  0.00    +0.245 A 
ATOM     13  N   LIG    1        2.866   0.352   0.000  0.00  0.00    -0.154 NA
ATOM     14  N   LIG    1        3.732   0.852   0.000  0.00  0.00    -0.228 N 
BRANCH  10  15
ATOM     15  N   LIG    1        2.866   3.352   0.000  0.00  0.00    -0.341 N 
ATOM     16  H   LIG    1        3.403   3.662   0.000  0.00  0.00    +0.144 HD
ATOM     17  H   LIG    1        2.329   3.662   0.000  0.00  0.00    +0.144 HD
ENDBRANCH  10  15
ENDBRANCH   5   6
BRANCH   4  18
ATOM     18  O   LIG    1        6.578  -1.209   0.000  0.00  0.00    -0.385 OA
ATOM     19  H   LIG    1        6.889  -1.746   0.000  0.00  0.00    +0.210 HD
ENDBRANCH   4  18
BRANCH   3  20
ATOM     20  O   LIG    1        5.302  -2.971   0.000  0.00  0.00    -0.386 OA
ATOM     21  H   LIG    1        5.909  -3.099   0.000  0.00  0.00    +0.210 HD
ENDBRANCH   3  20
BRANCH   5  22
ATOM     22  C   LIG    1        5.797   0.186   0.000  0.00  0.00    +0.107 C 
ATOM     23  N   LIG    1        6.605   0.775   0.000  0.00  0.00    -0.193 NA
ENDBRANCH   5  22
BRANCH   2  24
ATOM     24  C   LIG    1        3.232  -2.303   0.000  0.00  0.00    +0.190 C 
BRANCH  24  25
ATOM     25  O   LIG    1        3.338  -3.297   0.000  0.00  0.00    -0.392 OA
ATOM     26  H   LIG    1        2.837  -3.662   0.000  0.00  0.00    +0.210 HD
ENDBRANCH  24  25
ENDBRANCH   2  24
TORSDOF 7
