REMARK  Name = 44468762
REMARK                            x       y       z     vdW  Elec       q    Type
REMARK                         _______ _______ _______ _____ _____    ______ ____
ROOT
ATOM      1  O   LIG    1        5.578  -1.159   0.000  0.00  0.00    -0.354 OA
ATOM      2  C   LIG    1        4.992  -1.969   0.000  0.00  0.00    +0.176 C 
ATOM      3  C   LIG    1        4.040  -1.661   0.000  0.00  0.00    +0.177 C 
ATOM      4  C   LIG    1        4.038  -0.661   0.000  0.00  0.00    +0.185 C 
ATOM      5  C   LIG    1        4.989  -0.351   0.000  0.00  0.00    +0.162 C 
ENDROOT
BRANCH   5   6
ATOM      6  C   LIG    1        4.678   0.600   0.000  0.00  0.00    +0.080 A 
ATOM      7  C   LIG    1        5.262   1.405   0.000  0.00  0.00    +0.028 A 
ATOM      8  C   LIG    1        4.678   2.209   0.000  0.00  0.00    +0.033 A 
ATOM      9  C   LIG    1        3.732   1.905   0.000  0.00  0.00    +0.105 A 
ATOM     10  C   LIG    1        2.866   2.405   0.000  0.00  0.00    +0.144 A 
ATOM     11  N   LIG    1        2.000   1.905   0.000  0.00  0.00    -0.217 NA
ATOM     12  C   LIG    1        2.000   0.905   0.000  0.00  0.00    +0.245 A 
ATOM     13  N   LIG    1        2.866   0.405   0.000  0.00  0.00    -0.154 NA
ATOM     14  N   LIG    1        3.732   0.905   0.000  0.00  0.00    -0.229 N 
BRANCH  10  15
ATOM     15  N   LIG    1        2.866   3.405   0.000  0.00  0.00    -0.341 N 
ATOM     16  H   LIG    1        3.403   3.715   0.000  0.00  0.00    +0.144 HD
ATOM     17  H   LIG    1        2.329   3.715   0.000  0.00  0.00    +0.144 HD
ENDBRANCH  10  15
ENDBRANCH   5   6
BRANCH   4  18
ATOM     18  O   LIG    1        3.228  -0.075   0.000  0.00  0.00    -0.386 OA
ATOM     19  H   LIG    1        2.662  -0.328   0.000  0.00  0.00    +0.210 HD
ENDBRANCH   4  18
BRANCH   3  20
ATOM     20  O   LIG    1        3.232  -2.250   0.000  0.00  0.00    -0.386 OA
ATOM     21  H   LIG    1        3.298  -2.867   0.000  0.00  0.00    +0.210 HD
ENDBRANCH   3  20
BRANCH   2  22
ATOM     22  C   LIG    1        5.302  -2.919   0.000  0.00  0.00    +0.190 C 
BRANCH  22  23
ATOM     23  O   LIG    1        6.281  -3.125   0.000  0.00  0.00    -0.392 OA
ATOM     24  H   LIG    1        6.473  -3.715   0.000  0.00  0.00    +0.210 HD
ENDBRANCH  22  23
ENDBRANCH   2  22
BRANCH   5  25
ATOM     25  C   LIG    1        5.797   0.239   0.000  0.00  0.00    +0.200 C 
BRANCH  25  26
ATOM     26  O   LIG    1        6.711  -0.167   0.000  0.00  0.00    -0.392 OA
ATOM     27  H   LIG    1        7.212   0.199   0.000  0.00  0.00    +0.210 HD
ENDBRANCH  25  26
ENDBRANCH   5  25
TORSDOF 8
