REMARK  Name = 44470274
REMARK                            x       y       z     vdW  Elec       q    Type
REMARK                         _______ _______ _______ _____ _____    ______ ____
ROOT
ATOM      1  O   LIG    1        5.578  -1.159   0.000  0.00  0.00    -0.356 OA
ATOM      2  C   LIG    1        4.992  -1.969   0.000  0.00  0.00    +0.176 C 
ATOM      3  C   LIG    1        4.040  -1.661   0.000  0.00  0.00    +0.180 C 
ATOM      4  C   LIG    1        4.038  -0.661   0.000  0.00  0.00    +0.125 C 
ATOM      5  C   LIG    1        3.728   0.289   0.000  0.00  0.00    +0.047 C 
ATOM      6  C   LIG    1        4.989  -0.351   0.000  0.00  0.00    +0.139 C 
ATOM      7  C   LIG    1        5.797   0.239   0.000  0.00  0.00    +0.051 C 
ENDROOT
BRANCH   6   8
ATOM      8  C   LIG    1        4.678   0.600   0.000  0.00  0.00    +0.078 A 
ATOM      9  C   LIG    1        5.262   1.405   0.000  0.00  0.00    +0.028 A 
ATOM     10  C   LIG    1        4.678   2.209   0.000  0.00  0.00    +0.033 A 
ATOM     11  C   LIG    1        3.732   1.905   0.000  0.00  0.00    +0.105 A 
ATOM     12  C   LIG    1        2.866   2.405   0.000  0.00  0.00    +0.144 A 
ATOM     13  N   LIG    1        2.000   1.905   0.000  0.00  0.00    -0.217 NA
ATOM     14  C   LIG    1        2.000   0.905   0.000  0.00  0.00    +0.245 A 
ATOM     15  N   LIG    1        2.866   0.405   0.000  0.00  0.00    -0.154 NA
ATOM     16  N   LIG    1        3.732   0.905   0.000  0.00  0.00    -0.229 N 
BRANCH  12  17
ATOM     17  N   LIG    1        2.866   3.405   0.000  0.00  0.00    -0.341 N 
ATOM     18  H   LIG    1        3.403   3.715   0.000  0.00  0.00    +0.144 HD
ATOM     19  H   LIG    1        2.329   3.715   0.000  0.00  0.00    +0.144 HD
ENDBRANCH  12  17
ENDBRANCH   6   8
BRANCH   4  20
ATOM     20  O   LIG    1        3.038  -0.663   0.000  0.00  0.00    -0.383 OA
ATOM     21  H   LIG    1        2.729  -1.200   0.000  0.00  0.00    +0.210 HD
ENDBRANCH   4  20
BRANCH   3  22
ATOM     22  O   LIG    1        3.232  -2.250   0.000  0.00  0.00    -0.386 OA
ATOM     23  H   LIG    1        3.298  -2.867   0.000  0.00  0.00    +0.210 HD
ENDBRANCH   3  22
BRANCH   2  24
ATOM     24  C   LIG    1        5.302  -2.919   0.000  0.00  0.00    +0.190 C 
BRANCH  24  25
ATOM     25  O   LIG    1        6.281  -3.125   0.000  0.00  0.00    -0.392 OA
ATOM     26  H   LIG    1        6.473  -3.715   0.000  0.00  0.00    +0.210 HD
ENDBRANCH  24  25
ENDBRANCH   2  24
TORSDOF 6
