REMARK  Name = 25000921
REMARK                            x       y       z     vdW  Elec       q    Type
REMARK                         _______ _______ _______ _____ _____    ______ ____
ROOT
ATOM      1  C   LIG    1        7.244  -0.083   0.000  0.00  0.00    +0.177 C 
ATOM      2  C   LIG    1        8.195   0.227   0.000  0.00  0.00    +0.180 C 
ATOM      3  C   LIG    1        8.193   1.227   0.000  0.00  0.00    +0.123 C 
ATOM      4  C   LIG    1        8.501   2.179   0.000  0.00  0.00    +0.047 C 
ATOM      5  C   LIG    1        7.242   1.535   0.000  0.00  0.00    +0.201 C 
ATOM      6  O   LIG    1        6.655   0.725   0.000  0.00  0.00    -0.359 OA
ENDROOT
BRANCH   5   7
ATOM      7  C   LIG    1        6.931   2.485   0.000  0.00  0.00    +0.075 A 
ATOM      8  C   LIG    1        7.514   3.290   0.000  0.00  0.00    +0.028 A 
ATOM      9  C   LIG    1        6.931   4.095   0.000  0.00  0.00    +0.033 A 
ATOM     10  C   LIG    1        5.985   3.790   0.000  0.00  0.00    +0.105 A 
ATOM     11  C   LIG    1        5.119   4.290   0.000  0.00  0.00    +0.144 A 
ATOM     12  N   LIG    1        4.253   3.790   0.000  0.00  0.00    -0.217 NA
ATOM     13  C   LIG    1        4.253   2.790   0.000  0.00  0.00    +0.245 A 
ATOM     14  N   LIG    1        5.119   2.290   0.000  0.00  0.00    -0.154 NA
ATOM     15  N   LIG    1        5.985   2.790   0.000  0.00  0.00    -0.229 N 
BRANCH  11  16
ATOM     16  N   LIG    1        5.119   5.290   0.000  0.00  0.00    -0.341 N 
ATOM     17  H   LIG    1        5.656   5.600   0.000  0.00  0.00    +0.144 HD
ATOM     18  H   LIG    1        4.582   5.600   0.000  0.00  0.00    +0.144 HD
ENDBRANCH  11  16
ENDBRANCH   5   7
BRANCH   3  19
ATOM     19  O   LIG    1        9.193   1.229   0.000  0.00  0.00    -0.383 OA
ATOM     20  H   LIG    1        9.502   1.767   0.000  0.00  0.00    +0.210 HD
ENDBRANCH   3  19
BRANCH   2  21
ATOM     21  O   LIG    1        9.005  -0.359   0.000  0.00  0.00    -0.386 OA
ATOM     22  H   LIG    1        8.941  -0.976   0.000  0.00  0.00    +0.210 HD
ENDBRANCH   2  21
BRANCH   1  23
ATOM     23  C   LIG    1        6.937  -1.035   0.000  0.00  0.00    +0.206 C 
BRANCH  23  24
ATOM     24  O   LIG    1        5.959  -1.244   0.000  0.00  0.00    -0.284 OA
BRANCH  24  25
ATOM     25  P   LIG    1        5.652  -2.196   0.000  0.00  0.00    +0.483 P 
ATOM     26  O   LIG    1        6.603  -2.503   0.000  0.00  0.00    -0.227 OA
BRANCH  25  27
ATOM     27  O   LIG    1        4.700  -1.889   0.000  0.00  0.00    -0.302 OA
ATOM     28  H   LIG    1        4.570  -1.282   0.000  0.00  0.00    +0.222 HD
ENDBRANCH  25  27
BRANCH  25  29
ATOM     29  O   LIG    1        5.345  -3.148   0.000  0.00  0.00    -0.186 OA
BRANCH  29  30
ATOM     30  P   LIG    1        4.367  -3.357   0.000  0.00  0.00    +0.492 P 
ATOM     31  O   LIG    1        4.157  -2.380   0.000  0.00  0.00    -0.226 OA
BRANCH  30  32
ATOM     32  O   LIG    1        4.576  -4.335   0.000  0.00  0.00    -0.302 OA
ATOM     33  H   LIG    1        5.166  -4.526   0.000  0.00  0.00    +0.222 HD
ENDBRANCH  30  32
BRANCH  30  34
ATOM     34  O   LIG    1        3.389  -3.567   0.000  0.00  0.00    -0.186 OA
BRANCH  34  35
ATOM     35  P   LIG    1        3.082  -4.519   0.000  0.00  0.00    +0.481 P 
ATOM     36  O   LIG    1        4.033  -4.826   0.000  0.00  0.00    -0.227 OA
BRANCH  35  37
ATOM     37  O   LIG    1        2.130  -4.211   0.000  0.00  0.00    -0.302 OA
ATOM     38  H   LIG    1        2.000  -3.605   0.000  0.00  0.00    +0.222 HD
ENDBRANCH  35  37
BRANCH  35  39
ATOM     39  O   LIG    1        2.774  -5.470   0.000  0.00  0.00    -0.302 OA
ATOM     40  H   LIG    1        2.168  -5.600   0.000  0.00  0.00    +0.222 HD
ENDBRANCH  35  39
ENDBRANCH  34  35
ENDBRANCH  30  34
ENDBRANCH  29  30
ENDBRANCH  25  29
ENDBRANCH  24  25
ENDBRANCH  23  24
ENDBRANCH   1  23
TORSDOF 15
