REMARK  Name = 44468355
REMARK                            x       y       z     vdW  Elec       q    Type
REMARK                         _______ _______ _______ _____ _____    ______ ____
ROOT
ATOM      1  C   LIG    1        4.992  -1.249   0.000  0.00  0.00    +0.178 C 
ATOM      2  C   LIG    1        4.040  -0.942   0.000  0.00  0.00    +0.181 C 
ATOM      3  C   LIG    1        4.038   0.059   0.000  0.00  0.00    +0.139 C 
ATOM      4  C   LIG    1        3.728   1.009   0.000  0.00  0.00    +0.048 C 
ATOM      5  C   LIG    1        4.989   0.369   0.000  0.00  0.00    +0.228 C 
ATOM      6  O   LIG    1        5.578  -0.439   0.000  0.00  0.00    -0.343 OA
ENDROOT
BRANCH   5   7
ATOM      7  C   LIG    1        4.678   1.320   0.000  0.00  0.00    +0.092 A 
ATOM      8  C   LIG    1        5.262   2.124   0.000  0.00  0.00    +0.029 A 
ATOM      9  C   LIG    1        4.678   2.929   0.000  0.00  0.00    +0.033 A 
ATOM     10  C   LIG    1        3.732   2.624   0.000  0.00  0.00    +0.105 A 
ATOM     11  C   LIG    1        2.866   3.124   0.000  0.00  0.00    +0.144 A 
ATOM     12  N   LIG    1        2.000   2.624   0.000  0.00  0.00    -0.217 NA
ATOM     13  C   LIG    1        2.000   1.625   0.000  0.00  0.00    +0.245 A 
ATOM     14  N   LIG    1        2.866   1.125   0.000  0.00  0.00    -0.154 NA
ATOM     15  N   LIG    1        3.732   1.625   0.000  0.00  0.00    -0.228 N 
BRANCH  11  16
ATOM     16  N   LIG    1        2.866   4.125   0.000  0.00  0.00    -0.341 N 
ATOM     17  H   LIG    1        3.403   4.434   0.000  0.00  0.00    +0.144 HD
ATOM     18  H   LIG    1        2.329   4.434   0.000  0.00  0.00    +0.144 HD
ENDBRANCH  11  16
ENDBRANCH   5   7
BRANCH   5  19
ATOM     19  C   LIG    1        5.797   0.958   0.000  0.00  0.00    +0.107 C 
ATOM     20  N   LIG    1        6.605   1.548   0.000  0.00  0.00    -0.193 NA
ENDBRANCH   5  19
BRANCH   3  21
ATOM     21  O   LIG    1        3.038   0.057   0.000  0.00  0.00    -0.382 OA
ATOM     22  H   LIG    1        2.729  -0.481   0.000  0.00  0.00    +0.210 HD
ENDBRANCH   3  21
BRANCH   2  23
ATOM     23  O   LIG    1        3.232  -1.531   0.000  0.00  0.00    -0.386 OA
ATOM     24  H   LIG    1        3.298  -2.147   0.000  0.00  0.00    +0.210 HD
ENDBRANCH   2  23
BRANCH   1  25
ATOM     25  C   LIG    1        5.302  -2.199   0.000  0.00  0.00    +0.206 C 
BRANCH  25  26
ATOM     26  O   LIG    1        6.281  -2.406   0.000  0.00  0.00    -0.284 OA
BRANCH  26  27
ATOM     27  P   LIG    1        6.592  -3.356   0.000  0.00  0.00    +0.472 P 
ATOM     28  O   LIG    1        5.641  -3.667   0.000  0.00  0.00    -0.228 OA
BRANCH  27  29
ATOM     29  O   LIG    1        7.542  -3.045   0.000  0.00  0.00    -0.303 OA
ATOM     30  H   LIG    1        7.670  -2.439   0.000  0.00  0.00    +0.222 HD
ENDBRANCH  27  29
BRANCH  27  31
ATOM     31  O   LIG    1        6.902  -4.307   0.000  0.00  0.00    -0.303 OA
ATOM     32  H   LIG    1        7.509  -4.434   0.000  0.00  0.00    +0.222 HD
ENDBRANCH  27  31
ENDBRANCH  26  27
ENDBRANCH  25  26
ENDBRANCH   1  25
TORSDOF 10
