REMARK  Name = 44468356
REMARK                            x       y       z     vdW  Elec       q    Type
REMARK                         _______ _______ _______ _____ _____    ______ ____
ROOT
ATOM      1  C   LIG    1        4.992   0.422   0.000  0.00  0.00    +0.178 C 
ATOM      2  C   LIG    1        4.040   0.730   0.000  0.00  0.00    +0.181 C 
ATOM      3  C   LIG    1        4.038   1.730   0.000  0.00  0.00    +0.139 C 
ATOM      4  C   LIG    1        3.728   2.680   0.000  0.00  0.00    +0.048 C 
ATOM      5  C   LIG    1        4.989   2.040   0.000  0.00  0.00    +0.228 C 
ATOM      6  O   LIG    1        5.578   1.232   0.000  0.00  0.00    -0.343 OA
ENDROOT
BRANCH   5   7
ATOM      7  C   LIG    1        4.678   2.991   0.000  0.00  0.00    +0.092 A 
ATOM      8  C   LIG    1        5.262   3.796   0.000  0.00  0.00    +0.029 A 
ATOM      9  C   LIG    1        4.678   4.600   0.000  0.00  0.00    +0.033 A 
ATOM     10  C   LIG    1        3.732   4.296   0.000  0.00  0.00    +0.105 A 
ATOM     11  C   LIG    1        2.866   4.796   0.000  0.00  0.00    +0.144 A 
ATOM     12  N   LIG    1        2.000   4.296   0.000  0.00  0.00    -0.217 NA
ATOM     13  C   LIG    1        2.000   3.296   0.000  0.00  0.00    +0.245 A 
ATOM     14  N   LIG    1        2.866   2.796   0.000  0.00  0.00    -0.154 NA
ATOM     15  N   LIG    1        3.732   3.296   0.000  0.00  0.00    -0.228 N 
BRANCH  11  16
ATOM     16  N   LIG    1        2.866   5.796   0.000  0.00  0.00    -0.341 N 
ATOM     17  H   LIG    1        3.403   6.106   0.000  0.00  0.00    +0.144 HD
ATOM     18  H   LIG    1        2.329   6.106   0.000  0.00  0.00    +0.144 HD
ENDBRANCH  11  16
ENDBRANCH   5   7
BRANCH   2  19
ATOM     19  O   LIG    1        3.232   0.141   0.000  0.00  0.00    -0.386 OA
ATOM     20  H   LIG    1        3.298  -0.476   0.000  0.00  0.00    +0.210 HD
ENDBRANCH   2  19
BRANCH   3  21
ATOM     21  O   LIG    1        3.038   1.728   0.000  0.00  0.00    -0.382 OA
ATOM     22  H   LIG    1        2.729   1.190   0.000  0.00  0.00    +0.210 HD
ENDBRANCH   3  21
BRANCH   5  23
ATOM     23  C   LIG    1        5.797   2.630   0.000  0.00  0.00    +0.107 C 
ATOM     24  N   LIG    1        6.605   3.219   0.000  0.00  0.00    -0.193 NA
ENDBRANCH   5  23
BRANCH   1  25
ATOM     25  C   LIG    1        5.302  -0.528   0.000  0.00  0.00    +0.206 C 
BRANCH  25  26
ATOM     26  O   LIG    1        6.281  -0.734   0.000  0.00  0.00    -0.284 OA
BRANCH  26  27
ATOM     27  P   LIG    1        6.592  -1.685   0.000  0.00  0.00    +0.483 P 
ATOM     28  O   LIG    1        5.641  -1.996   0.000  0.00  0.00    -0.227 OA
BRANCH  27  29
ATOM     29  O   LIG    1        6.902  -2.635   0.000  0.00  0.00    -0.248 OA
BRANCH  29  30
ATOM     30  C   LIG    1        7.881  -2.842   0.000  0.00  0.00    +0.413 C 
BRANCH  30  31
ATOM     31  O   LIG    1        8.191  -3.792   0.000  0.00  0.00    -0.406 OA
BRANCH  31  32
ATOM     32  C   LIG    1        9.170  -3.998   0.000  0.00  0.00    +0.512 C 
ATOM     33  O   LIG    1        9.838  -3.254   0.000  0.00  0.00    -0.203 OA
BRANCH  32  34
ATOM     34  O   LIG    1        9.481  -4.949   0.000  0.00  0.00    -0.431 OA
BRANCH  34  35
ATOM     35  C   LIG    1       10.459  -5.155   0.000  0.00  0.00    +0.174 C 
ATOM     36  C   LIG    1       11.127  -4.411   0.000  0.00  0.00    +0.052 C 
ATOM     37  C   LIG    1       10.770  -6.106   0.000  0.00  0.00    +0.052 C 
ENDBRANCH  34  35
ENDBRANCH  32  34
ENDBRANCH  31  32
ENDBRANCH  30  31
ENDBRANCH  29  30
ENDBRANCH  27  29
BRANCH  27  38
ATOM     38  O   LIG    1        7.542  -1.374   0.000  0.00  0.00    -0.248 OA
BRANCH  38  39
ATOM     39  C   LIG    1        7.748  -0.396   0.000  0.00  0.00    +0.413 C 
BRANCH  39  40
ATOM     40  O   LIG    1        8.699  -0.085   0.000  0.00  0.00    -0.406 OA
BRANCH  40  41
ATOM     41  C   LIG    1        9.443  -0.753   0.000  0.00  0.00    +0.512 C 
ATOM     42  O   LIG    1        9.237  -1.731   0.000  0.00  0.00    -0.203 OA
BRANCH  41  43
ATOM     43  O   LIG    1       10.394  -0.442   0.000  0.00  0.00    -0.431 OA
BRANCH  43  44
ATOM     44  C   LIG    1       10.600   0.536   0.000  0.00  0.00    +0.174 C 
ATOM     45  C   LIG    1        9.856   1.204   0.000  0.00  0.00    +0.052 C 
ATOM     46  C   LIG    1       11.550   0.847   0.000  0.00  0.00    +0.052 C 
ENDBRANCH  43  44
ENDBRANCH  41  43
ENDBRANCH  40  41
ENDBRANCH  39  40
ENDBRANCH  38  39
ENDBRANCH  27  38
ENDBRANCH  26  27
ENDBRANCH  25  26
ENDBRANCH   1  25
TORSDOF 20
