MODEL 1
REMARK VINA RESULT:      -9.0      0.000      0.000
REMARK  Name = 25000917
REMARK                            x       y       z     vdW  Elec       q    Type
REMARK                         _______ _______ _______ _____ _____    ______ ____
ROOT
ATOM      1  O   LIG    1       19.585  42.019  52.594  0.00  0.00    -0.359 OA
ATOM      2  C   LIG    1       20.123  42.817  52.324  0.00  0.00    +0.176 C 
ATOM      3  C   LIG    1       20.653  43.115  53.118  0.00  0.00    +0.180 C 
ATOM      4  C   LIG    1       20.444  42.500  53.878  0.00  0.00    +0.123 C 
ATOM      5  C   LIG    1       20.437  42.074  54.782  0.00  0.00    +0.047 C 
ATOM      6  C   LIG    1       19.783  41.823  53.554  0.00  0.00    +0.201 C 
ENDROOT
BRANCH   6   7
ATOM      7  C   LIG    1       19.390  41.079  54.096  0.00  0.00    +0.075 A 
ATOM      8  C   LIG    1       18.668  41.170  54.774  0.00  0.00    +0.028 A 
ATOM      9  C   LIG    1       18.483  40.268  55.149  0.00  0.00    +0.033 A 
ATOM     10  C   LIG    1       19.088  39.618  54.704  0.00  0.00    +0.105 A 
ATOM     11  C   LIG    1       19.204  38.630  54.807  0.00  0.00    +0.144 A 
ATOM     12  N   LIG    1       19.883  38.146  54.255  0.00  0.00    -0.217 NA
ATOM     13  C   LIG    1       20.447  38.650  53.600  0.00  0.00    +0.245 A 
ATOM     14  N   LIG    1       20.331  39.638  53.498  0.00  0.00    -0.154 NA
ATOM     15  N   LIG    1       19.652  40.122  54.050  0.00  0.00    -0.229 N 
BRANCH  11  16
ATOM     16  N   LIG    1       18.640  38.126  55.461  0.00  0.00    -0.341 N 
ATOM     17  H   LIG    1       18.824  38.070  56.051  0.00  0.00    +0.144 HD
ATOM     18  H   LIG    1       18.106  37.869  55.278  0.00  0.00    +0.144 HD
ENDBRANCH  11  16
ENDBRANCH   6   7
BRANCH   4  19
ATOM     19  O   LIG    1       21.070  43.013  54.465  0.00  0.00    -0.383 OA
ATOM     20  H   LIG    1       21.126  43.627  54.395  0.00  0.00    +0.210 HD
ENDBRANCH   4  19
BRANCH   3  21
ATOM     21  O   LIG    1       21.283  43.891  53.146  0.00  0.00    -0.386 OA
ATOM     22  H   LIG    1       21.753  43.896  53.549  0.00  0.00    +0.210 HD
ENDBRANCH   3  21
BRANCH   2  23
ATOM     23  C   LIG    1       20.129  43.243  51.419  0.00  0.00    +0.190 C 
BRANCH  23  24
ATOM     24  O   LIG    1       19.635  42.817  50.663  0.00  0.00    -0.392 OA
ATOM     25  H   LIG    1       19.850  42.867  50.083  0.00  0.00    +0.210 HD
ENDBRANCH  23  24
ENDBRANCH   2  23
TORSDOF 6
ENDMDL
MODEL 2
REMARK VINA RESULT:      -8.6      1.060      1.638
REMARK  Name = 25000917
REMARK                            x       y       z     vdW  Elec       q    Type
REMARK                         _______ _______ _______ _____ _____    ______ ____
ROOT
ATOM      1  O   LIG    1       19.901  42.231  52.521  0.00  0.00    -0.359 OA
ATOM      2  C   LIG    1       20.358  43.115  52.429  0.00  0.00    +0.176 C 
ATOM      3  C   LIG    1       21.222  43.069  52.930  0.00  0.00    +0.180 C 
ATOM      4  C   LIG    1       21.299  42.156  53.332  0.00  0.00    +0.123 C 
ATOM      5  C   LIG    1       21.644  41.365  53.835  0.00  0.00    +0.047 C 
ATOM      6  C   LIG    1       20.482  41.638  53.078  0.00  0.00    +0.201 C 
ENDROOT
BRANCH   6   7
ATOM      7  C   LIG    1       20.281  40.693  53.337  0.00  0.00    +0.075 A 
ATOM      8  C   LIG    1       20.710  39.881  52.958  0.00  0.00    +0.028 A 
ATOM      9  C   LIG    1       20.313  39.086  53.404  0.00  0.00    +0.033 A 
ATOM     10  C   LIG    1       19.638  39.404  54.059  0.00  0.00    +0.105 A 
ATOM     11  C   LIG    1       19.035  38.918  54.691  0.00  0.00    +0.144 A 
ATOM     12  N   LIG    1       18.411  39.430  55.282  0.00  0.00    -0.217 NA
ATOM     13  C   LIG    1       18.391  40.429  55.241  0.00  0.00    +0.245 A 
ATOM     14  N   LIG    1       18.994  40.916  54.608  0.00  0.00    -0.154 NA
ATOM     15  N   LIG    1       19.617  40.403  54.018  0.00  0.00    -0.229 N 
BRANCH  11  16
ATOM     16  N   LIG    1       19.055  37.919  54.733  0.00  0.00    -0.341 N 
ATOM     17  H   LIG    1       18.532  37.595  54.655  0.00  0.00    +0.144 HD
ATOM     18  H   LIG    1       19.590  37.624  54.836  0.00  0.00    +0.144 HD
ENDBRANCH  11  16
ENDBRANCH   6   7
BRANCH   4  19
ATOM     19  O   LIG    1       22.183  42.405  53.728  0.00  0.00    -0.383 OA
ATOM     20  H   LIG    1       22.685  42.061  53.605  0.00  0.00    +0.210 HD
ENDBRANCH   4  19
BRANCH   3  21
ATOM     21  O   LIG    1       21.892  43.807  53.015  0.00  0.00    -0.386 OA
ATOM     22  H   LIG    1       22.243  43.965  52.530  0.00  0.00    +0.210 HD
ENDBRANCH   3  21
BRANCH   2  23
ATOM     23  C   LIG    1       20.012  43.907  51.925  0.00  0.00    +0.190 C 
BRANCH  23  24
ATOM     24  O   LIG    1       19.208  44.398  52.257  0.00  0.00    -0.392 OA
ATOM     25  H   LIG    1       18.930  44.819  51.896  0.00  0.00    +0.210 HD
ENDBRANCH  23  24
ENDBRANCH   2  23
TORSDOF 6
ENDMDL
MODEL 3
REMARK VINA RESULT:      -7.6      2.434      4.312
REMARK  Name = 25000917
REMARK                            x       y       z     vdW  Elec       q    Type
REMARK                         _______ _______ _______ _____ _____    ______ ____
ROOT
ATOM      1  O   LIG    1       19.003  40.483  54.484  0.00  0.00    -0.359 OA
ATOM      2  C   LIG    1       19.025  39.497  54.649  0.00  0.00    +0.176 C 
ATOM      3  C   LIG    1       19.857  39.133  54.231  0.00  0.00    +0.180 C 
ATOM      4  C   LIG    1       20.349  39.894  53.808  0.00  0.00    +0.123 C 
ATOM      5  C   LIG    1       21.038  40.423  53.313  0.00  0.00    +0.047 C 
ATOM      6  C   LIG    1       19.821  40.728  53.965  0.00  0.00    +0.201 C 
ENDROOT
BRANCH   6   7
ATOM      7  C   LIG    1       20.068  41.648  53.656  0.00  0.00    +0.075 A 
ATOM      8  C   LIG    1       20.498  42.352  54.209  0.00  0.00    +0.028 A 
ATOM      9  C   LIG    1       20.623  43.158  53.640  0.00  0.00    +0.033 A 
ATOM     10  C   LIG    1       20.270  42.952  52.733  0.00  0.00    +0.105 A 
ATOM     11  C   LIG    1       20.217  43.496  51.896  0.00  0.00    +0.144 A 
ATOM     12  N   LIG    1       19.818  43.101  51.068  0.00  0.00    -0.217 NA
ATOM     13  C   LIG    1       19.473  42.162  51.078  0.00  0.00    +0.245 A 
ATOM     14  N   LIG    1       19.526  41.619  51.916  0.00  0.00    -0.154 NA
ATOM     15  N   LIG    1       19.925  42.014  52.744  0.00  0.00    -0.229 N 
BRANCH  11  16
ATOM     16  N   LIG    1       20.562  44.434  51.885  0.00  0.00    -0.341 N 
ATOM     17  H   LIG    1       21.154  44.545  51.740  0.00  0.00    +0.144 HD
ATOM     18  H   LIG    1       20.183  44.905  52.024  0.00  0.00    +0.144 HD
ENDBRANCH  11  16
ENDBRANCH   6   7
BRANCH   4  19
ATOM     19  O   LIG    1       21.064  39.263  53.506  0.00  0.00    -0.383 OA
ATOM     20  H   LIG    1       20.971  38.906  53.007  0.00  0.00    +0.210 HD
ENDBRANCH   4  19
BRANCH   3  21
ATOM     21  O   LIG    1       20.146  38.176  54.235  0.00  0.00    -0.386 OA
ATOM     22  H   LIG    1       19.724  37.724  54.280  0.00  0.00    +0.210 HD
ENDBRANCH   3  21
BRANCH   2  23
ATOM     23  C   LIG    1       18.335  38.968  55.144  0.00  0.00    +0.190 C 
BRANCH  23  24
ATOM     24  O   LIG    1       17.444  38.795  54.728  0.00  0.00    -0.392 OA
ATOM     25  H   LIG    1       17.268  38.213  54.602  0.00  0.00    +0.210 HD
ENDBRANCH  23  24
ENDBRANCH   2  23
TORSDOF 6
ENDMDL
MODEL 4
REMARK VINA RESULT:      -7.4      2.442      4.337
REMARK  Name = 25000917
REMARK                            x       y       z     vdW  Elec       q    Type
REMARK                         _______ _______ _______ _____ _____    ______ ____
ROOT
ATOM      1  O   LIG    1       20.243  40.107  53.578  0.00  0.00    -0.359 OA
ATOM      2  C   LIG    1       19.717  39.458  54.129  0.00  0.00    +0.176 C 
ATOM      3  C   LIG    1       19.130  39.982  54.746  0.00  0.00    +0.180 C 
ATOM      4  C   LIG    1       19.292  40.954  54.577  0.00  0.00    +0.123 C 
ATOM      5  C   LIG    1       19.240  41.950  54.634  0.00  0.00    +0.047 C 
ATOM      6  C   LIG    1       19.980  41.031  53.855  0.00  0.00    +0.201 C 
ENDROOT
BRANCH   6   7
ATOM      7  C   LIG    1       20.342  41.883  53.476  0.00  0.00    +0.075 A 
ATOM      8  C   LIG    1       20.977  42.499  53.929  0.00  0.00    +0.028 A 
ATOM      9  C   LIG    1       21.159  43.260  53.316  0.00  0.00    +0.033 A 
ATOM     10  C   LIG    1       20.636  43.117  52.483  0.00  0.00    +0.105 A 
ATOM     11  C   LIG    1       20.553  43.652  51.642  0.00  0.00    +0.144 A 
ATOM     12  N   LIG    1       19.963  43.332  50.901  0.00  0.00    -0.217 NA
ATOM     13  C   LIG    1       19.456  42.476  51.001  0.00  0.00    +0.245 A 
ATOM     14  N   LIG    1       19.538  41.940  51.842  0.00  0.00    -0.154 NA
ATOM     15  N   LIG    1       20.129  42.261  52.582  0.00  0.00    -0.229 N 
BRANCH  11  16
ATOM     16  N   LIG    1       21.061  44.508  51.543  0.00  0.00    -0.341 N 
ATOM     17  H   LIG    1       20.805  44.987  51.243  0.00  0.00    +0.144 HD
ATOM     18  H   LIG    1       21.631  44.560  51.780  0.00  0.00    +0.144 HD
ENDBRANCH  11  16
ENDBRANCH   6   7
BRANCH   4  19
ATOM     19  O   LIG    1       18.622  41.188  55.281  0.00  0.00    -0.383 OA
ATOM     20  H   LIG    1       18.141  40.811  55.388  0.00  0.00    +0.210 HD
ENDBRANCH   4  19
BRANCH   3  21
ATOM     21  O   LIG    1       18.493  39.599  55.415  0.00  0.00    -0.386 OA
ATOM     22  H   LIG    1       18.520  38.998  55.561  0.00  0.00    +0.210 HD
ENDBRANCH   3  21
BRANCH   2  23
ATOM     23  C   LIG    1       19.771  38.460  54.072  0.00  0.00    +0.190 C 
BRANCH  23  24
ATOM     24  O   LIG    1       20.437  37.963  54.625  0.00  0.00    -0.392 OA
ATOM     25  H   LIG    1       21.023  37.907  54.429  0.00  0.00    +0.210 HD
ENDBRANCH  23  24
ENDBRANCH   2  23
TORSDOF 6
ENDMDL
MODEL 5
REMARK VINA RESULT:      -7.4      2.508      4.447
REMARK  Name = 25000917
REMARK                            x       y       z     vdW  Elec       q    Type
REMARK                         _______ _______ _______ _____ _____    ______ ____
ROOT
ATOM      1  O   LIG    1       18.797  40.048  54.306  0.00  0.00    -0.359 OA
ATOM      2  C   LIG    1       18.996  39.153  54.705  0.00  0.00    +0.176 C 
ATOM      3  C   LIG    1       19.868  38.837  54.332  0.00  0.00    +0.180 C 
ATOM      4  C   LIG    1       20.209  39.536  53.704  0.00  0.00    +0.123 C 
ATOM      5  C   LIG    1       20.781  40.028  53.049  0.00  0.00    +0.047 C 
ATOM      6  C   LIG    1       19.546  40.285  53.688  0.00  0.00    +0.201 C 
ENDROOT
BRANCH   6   7
ATOM      7  C   LIG    1       19.620  41.124  53.148  0.00  0.00    +0.075 A 
ATOM      8  C   LIG    1       19.626  41.179  52.155  0.00  0.00    +0.028 A 
ATOM      9  C   LIG    1       19.710  42.137  51.901  0.00  0.00    +0.033 A 
ATOM     10  C   LIG    1       19.756  42.675  52.735  0.00  0.00    +0.105 A 
ATOM     11  C   LIG    1       19.842  43.659  52.895  0.00  0.00    +0.144 A 
ATOM     12  N   LIG    1       19.871  44.012  53.830  0.00  0.00    -0.217 NA
ATOM     13  C   LIG    1       19.815  43.382  54.605  0.00  0.00    +0.245 A 
ATOM     14  N   LIG    1       19.730  42.399  54.445  0.00  0.00    -0.154 NA
ATOM     15  N   LIG    1       19.700  42.045  53.510  0.00  0.00    -0.229 N 
BRANCH  11  16
ATOM     16  N   LIG    1       19.898  44.288  52.121  0.00  0.00    -0.341 N 
ATOM     17  H   LIG    1       19.410  44.642  51.973  0.00  0.00    +0.144 HD
ATOM     18  H   LIG    1       20.420  44.325  51.788  0.00  0.00    +0.144 HD
ENDBRANCH  11  16
ENDBRANCH   6   7
BRANCH   4  19
ATOM     19  O   LIG    1       21.015  38.975  53.517  0.00  0.00    -0.383 OA
ATOM     20  H   LIG    1       21.275  38.984  52.954  0.00  0.00    +0.210 HD
ENDBRANCH   4  19
BRANCH   3  21
ATOM     21  O   LIG    1       20.321  37.972  54.551  0.00  0.00    -0.386 OA
ATOM     22  H   LIG    1       20.823  37.796  54.234  0.00  0.00    +0.210 HD
ENDBRANCH   3  21
BRANCH   2  23
ATOM     23  C   LIG    1       18.422  38.661  55.360  0.00  0.00    +0.190 C 
BRANCH  23  24
ATOM     24  O   LIG    1       17.606  38.178  55.047  0.00  0.00    -0.392 OA
ATOM     25  H   LIG    1       17.661  37.686  54.673  0.00  0.00    +0.210 HD
ENDBRANCH  23  24
ENDBRANCH   2  23
TORSDOF 6
ENDMDL
MODEL 6
REMARK VINA RESULT:      -7.0     12.494     14.238
REMARK  Name = 25000917
REMARK                            x       y       z     vdW  Elec       q    Type
REMARK                         _______ _______ _______ _____ _____    ______ ____
ROOT
ATOM      1  O   LIG    1       22.448  31.868  62.224  0.00  0.00    -0.359 OA
ATOM      2  C   LIG    1       21.727  32.481  62.546  0.00  0.00    +0.176 C 
ATOM      3  C   LIG    1       21.686  32.414  63.542  0.00  0.00    +0.180 C 
ATOM      4  C   LIG    1       22.382  31.760  63.838  0.00  0.00    +0.123 C 
ATOM      5  C   LIG    1       22.961  31.182  64.412  0.00  0.00    +0.047 C 
ATOM      6  C   LIG    1       22.853  31.422  63.022  0.00  0.00    +0.201 C 
ENDROOT
BRANCH   6   7
ATOM      7  C   LIG    1       23.599  30.755  63.008  0.00  0.00    +0.075 A 
ATOM      8  C   LIG    1       23.521  29.790  63.230  0.00  0.00    +0.028 A 
ATOM      9  C   LIG    1       24.421  29.377  63.130  0.00  0.00    +0.033 A 
ATOM     10  C   LIG    1       25.056  30.087  62.845  0.00  0.00    +0.105 A 
ATOM     11  C   LIG    1       26.035  30.070  62.644  0.00  0.00    +0.144 A 
ATOM     12  N   LIG    1       26.503  30.909  62.366  0.00  0.00    -0.217 NA
ATOM     13  C   LIG    1       25.993  31.765  62.291  0.00  0.00    +0.245 A 
ATOM     14  N   LIG    1       25.013  31.782  62.493  0.00  0.00    -0.154 NA
ATOM     15  N   LIG    1       24.545  30.944  62.770  0.00  0.00    -0.229 N 
BRANCH  11  16
ATOM     16  N   LIG    1       26.546  29.213  62.719  0.00  0.00    -0.341 N 
ATOM     17  H   LIG    1       27.119  29.214  62.955  0.00  0.00    +0.144 HD
ATOM     18  H   LIG    1       26.289  28.682  62.529  0.00  0.00    +0.144 HD
ENDBRANCH  11  16
ENDBRANCH   6   7
BRANCH   4  19
ATOM     19  O   LIG    1       22.113  31.903  64.790  0.00  0.00    -0.383 OA
ATOM     20  H   LIG    1       21.989  32.476  64.994  0.00  0.00    +0.210 HD
ENDBRANCH   4  19
BRANCH   3  21
ATOM     21  O   LIG    1       21.059  32.915  64.139  0.00  0.00    -0.386 OA
ATOM     22  H   LIG    1       20.605  33.258  63.895  0.00  0.00    +0.210 HD
ENDBRANCH   3  21
BRANCH   2  23
ATOM     23  C   LIG    1       21.147  33.060  61.970  0.00  0.00    +0.190 C 
BRANCH  23  24
ATOM     24  O   LIG    1       21.468  33.350  61.070  0.00  0.00    -0.392 OA
ATOM     25  H   LIG    1       22.043  33.573  61.002  0.00  0.00    +0.210 HD
ENDBRANCH  23  24
ENDBRANCH   2  23
TORSDOF 6
ENDMDL
MODEL 7
REMARK VINA RESULT:      -6.6     13.510     15.241
REMARK  Name = 25000917
REMARK                            x       y       z     vdW  Elec       q    Type
REMARK                         _______ _______ _______ _____ _____    ______ ____
ROOT
ATOM      1  O   LIG    1       24.030  31.736  62.568  0.00  0.00    -0.359 OA
ATOM      2  C   LIG    1       23.032  31.781  62.618  0.00  0.00    +0.176 C 
ATOM      3  C   LIG    1       22.702  30.913  62.985  0.00  0.00    +0.180 C 
ATOM      4  C   LIG    1       23.495  30.329  63.163  0.00  0.00    +0.123 C 
ATOM      5  C   LIG    1       24.061  29.552  63.432  0.00  0.00    +0.047 C 
ATOM      6  C   LIG    1       24.316  30.839  62.904  0.00  0.00    +0.201 C 
ENDROOT
BRANCH   6   7
ATOM      7  C   LIG    1       25.258  30.508  62.971  0.00  0.00    +0.075 A 
ATOM      8  C   LIG    1       25.643  29.740  62.472  0.00  0.00    +0.028 A 
ATOM      9  C   LIG    1       26.596  29.646  62.739  0.00  0.00    +0.033 A 
ATOM     10  C   LIG    1       26.802  30.355  63.404  0.00  0.00    +0.105 A 
ATOM     11  C   LIG    1       27.639  30.587  63.900  0.00  0.00    +0.144 A 
ATOM     12  N   LIG    1       27.644  31.354  64.541  0.00  0.00    -0.217 NA
ATOM     13  C   LIG    1       26.812  31.890  64.685  0.00  0.00    +0.245 A 
ATOM     14  N   LIG    1       25.975  31.659  64.189  0.00  0.00    -0.154 NA
ATOM     15  N   LIG    1       25.970  30.891  63.548  0.00  0.00    -0.229 N 
BRANCH  11  16
ATOM     16  N   LIG    1       28.470  30.050  63.755  0.00  0.00    -0.341 N 
ATOM     17  H   LIG    1       28.970  30.151  64.109  0.00  0.00    +0.144 HD
ATOM     18  H   LIG    1       28.487  29.617  63.312  0.00  0.00    +0.144 HD
ENDBRANCH  11  16
ENDBRANCH   6   7
BRANCH   4  19
ATOM     19  O   LIG    1       22.888  29.605  63.491  0.00  0.00    -0.383 OA
ATOM     20  H   LIG    1       22.934  29.033  63.257  0.00  0.00    +0.210 HD
ENDBRANCH   4  19
BRANCH   3  21
ATOM     21  O   LIG    1       21.745  30.669  63.147  0.00  0.00    -0.386 OA
ATOM     22  H   LIG    1       21.598  30.098  63.336  0.00  0.00    +0.210 HD
ENDBRANCH   3  21
BRANCH   2  23
ATOM     23  C   LIG    1       22.465  32.560  62.348  0.00  0.00    +0.190 C 
BRANCH  23  24
ATOM     24  O   LIG    1       22.536  32.933  61.424  0.00  0.00    -0.392 OA
ATOM     25  H   LIG    1       22.448  33.539  61.326  0.00  0.00    +0.210 HD
ENDBRANCH  23  24
ENDBRANCH   2  23
TORSDOF 6
ENDMDL
MODEL 8
REMARK VINA RESULT:      -6.3     12.108     12.958
REMARK  Name = 25000917
REMARK                            x       y       z     vdW  Elec       q    Type
REMARK                         _______ _______ _______ _____ _____    ______ ____
ROOT
ATOM      1  O   LIG    1       18.847  31.986  62.084  0.00  0.00    -0.359 OA
ATOM      2  C   LIG    1       17.928  32.267  62.359  0.00  0.00    +0.176 C 
ATOM      3  C   LIG    1       18.015  33.068  62.951  0.00  0.00    +0.180 C 
ATOM      4  C   LIG    1       18.988  33.282  63.042  0.00  0.00    +0.123 C 
ATOM      5  C   LIG    1       19.843  33.724  63.312  0.00  0.00    +0.047 C 
ATOM      6  C   LIG    1       19.502  32.613  62.506  0.00  0.00    +0.201 C 
ENDROOT
BRANCH   6   7
ATOM      7  C   LIG    1       20.497  32.577  62.408  0.00  0.00    +0.075 A 
ATOM      8  C   LIG    1       21.058  33.229  61.909  0.00  0.00    +0.028 A 
ATOM      9  C   LIG    1       22.006  32.940  61.985  0.00  0.00    +0.033 A 
ATOM     10  C   LIG    1       22.034  32.110  62.531  0.00  0.00    +0.105 A 
ATOM     11  C   LIG    1       22.791  31.526  62.826  0.00  0.00    +0.144 A 
ATOM     12  N   LIG    1       22.609  30.717  63.384  0.00  0.00    -0.217 NA
ATOM     13  C   LIG    1       21.671  30.491  63.647  0.00  0.00    +0.245 A 
ATOM     14  N   LIG    1       20.915  31.075  63.352  0.00  0.00    -0.154 NA
ATOM     15  N   LIG    1       21.096  31.885  62.794  0.00  0.00    -0.229 N 
BRANCH  11  16
ATOM     16  N   LIG    1       23.729  31.752  62.562  0.00  0.00    -0.341 N 
ATOM     17  H   LIG    1       24.204  31.544  62.901  0.00  0.00    +0.144 HD
ATOM     18  H   LIG    1       23.834  32.100  62.060  0.00  0.00    +0.144 HD
ENDBRANCH  11  16
ENDBRANCH   6   7
BRANCH   4  19
ATOM     19  O   LIG    1       18.762  34.054  63.636  0.00  0.00    -0.383 OA
ATOM     20  H   LIG    1       18.308  34.000  64.056  0.00  0.00    +0.210 HD
ENDBRANCH   4  19
BRANCH   3  21
ATOM     21  O   LIG    1       17.261  33.567  63.378  0.00  0.00    -0.386 OA
ATOM     22  H   LIG    1       17.325  34.166  63.519  0.00  0.00    +0.210 HD
ENDBRANCH   3  21
BRANCH   2  23
ATOM     23  C   LIG    1       17.073  31.824  62.089  0.00  0.00    +0.190 C 
BRANCH  23  24
ATOM     24  O   LIG    1       16.752  31.891  61.145  0.00  0.00    -0.392 OA
ATOM     25  H   LIG    1       16.622  32.446  60.900  0.00  0.00    +0.210 HD
ENDBRANCH  23  24
ENDBRANCH   2  23
TORSDOF 6
ENDMDL
MODEL 9
REMARK VINA RESULT:      -6.3     12.076     13.960
REMARK  Name = 25000917
REMARK                            x       y       z     vdW  Elec       q    Type
REMARK                         _______ _______ _______ _____ _____    ______ ____
ROOT
ATOM      1  O   LIG    1       24.546  32.114  62.841  0.00  0.00    -0.359 OA
ATOM      2  C   LIG    1       25.414  31.652  62.661  0.00  0.00    +0.176 C 
ATOM      3  C   LIG    1       25.250  30.667  62.690  0.00  0.00    +0.180 C 
ATOM      4  C   LIG    1       24.281  30.519  62.887  0.00  0.00    +0.123 C 
ATOM      5  C   LIG    1       23.404  30.074  63.064  0.00  0.00    +0.047 C 
ATOM      6  C   LIG    1       23.846  31.414  62.981  0.00  0.00    +0.201 C 
ENDROOT
BRANCH   6   7
ATOM      7  C   LIG    1       22.880  31.581  63.179  0.00  0.00    +0.075 A 
ATOM      8  C   LIG    1       22.376  31.226  63.959  0.00  0.00    +0.028 A 
ATOM      9  C   LIG    1       21.439  31.554  63.896  0.00  0.00    +0.033 A 
ATOM     10  C   LIG    1       21.362  32.112  63.077  0.00  0.00    +0.105 A 
ATOM     11  C   LIG    1       20.594  32.610  62.674  0.00  0.00    +0.144 A 
ATOM     12  N   LIG    1       20.722  33.124  61.826  0.00  0.00    -0.217 NA
ATOM     13  C   LIG    1       21.617  33.141  61.381  0.00  0.00    +0.245 A 
ATOM     14  N   LIG    1       22.385  32.643  61.783  0.00  0.00    -0.154 NA
ATOM     15  N   LIG    1       22.258  32.128  62.631  0.00  0.00    -0.229 N 
BRANCH  11  16
ATOM     16  N   LIG    1       19.699  32.593  63.119  0.00  0.00    -0.341 N 
ATOM     17  H   LIG    1       19.331  32.098  63.057  0.00  0.00    +0.144 HD
ATOM     18  H   LIG    1       19.512  33.078  63.456  0.00  0.00    +0.144 HD
ENDBRANCH  11  16
ENDBRANCH   6   7
BRANCH   4  19
ATOM     19  O   LIG    1       24.425  29.530  62.853  0.00  0.00    -0.383 OA
ATOM     20  H   LIG    1       24.549  29.254  62.311  0.00  0.00    +0.210 HD
ENDBRANCH   4  19
BRANCH   3  21
ATOM     21  O   LIG    1       25.936  29.953  62.546  0.00  0.00    -0.386 OA
ATOM     22  H   LIG    1       26.501  30.102  62.340  0.00  0.00    +0.210 HD
ENDBRANCH   3  21
BRANCH   2  23
ATOM     23  C   LIG    1       26.292  32.098  62.484  0.00  0.00    +0.190 C 
BRANCH  23  24
ATOM     24  O   LIG    1       26.703  32.686  63.179  0.00  0.00    -0.392 OA
ATOM     25  H   LIG    1       26.463  33.246  63.294  0.00  0.00    +0.210 HD
ENDBRANCH  23  24
ENDBRANCH   2  23
TORSDOF 6
ENDMDL
