MODEL 1
REMARK VINA RESULT:      -9.7      0.000      0.000
REMARK  Name = 44468217
REMARK                            x       y       z     vdW  Elec       q    Type
REMARK                         _______ _______ _______ _____ _____    ______ ____
ROOT
ATOM      1  O   LIG    1       20.255  43.146  52.978  0.00  0.00    -0.357 OA
ATOM      2  C   LIG    1       19.979  43.448  52.066  0.00  0.00    +0.176 C 
ATOM      3  C   LIG    1       19.807  42.634  51.510  0.00  0.00    +0.177 C 
ATOM      4  C   LIG    1       19.978  41.829  52.078  0.00  0.00    +0.183 C 
ATOM      5  C   LIG    1       20.254  42.146  52.986  0.00  0.00    +0.137 C 
ATOM      6  C   LIG    1       20.545  42.152  53.943  0.00  0.00    +0.051 C 
ENDROOT
BRANCH   5   7
ATOM      7  C   LIG    1       20.344  41.196  53.288  0.00  0.00    +0.078 A 
ATOM      8  C   LIG    1       21.080  40.573  53.047  0.00  0.00    +0.028 A 
ATOM      9  C   LIG    1       20.905  39.702  53.491  0.00  0.00    +0.033 A 
ATOM     10  C   LIG    1       20.061  39.782  54.009  0.00  0.00    +0.105 A 
ATOM     11  C   LIG    1       19.559  39.133  54.581  0.00  0.00    +0.144 A 
ATOM     12  N   LIG    1       18.709  39.412  55.026  0.00  0.00    -0.217 NA
ATOM     13  C   LIG    1       18.360  40.341  54.900  0.00  0.00    +0.245 A 
ATOM     14  N   LIG    1       18.861  40.990  54.328  0.00  0.00    -0.154 NA
ATOM     15  N   LIG    1       19.712  40.711  53.883  0.00  0.00    -0.229 N 
BRANCH  11  16
ATOM     16  N   LIG    1       19.909  38.204  54.707  0.00  0.00    -0.341 N 
ATOM     17  H   LIG    1       20.155  37.898  54.227  0.00  0.00    +0.144 HD
ATOM     18  H   LIG    1       19.878  37.935  55.264  0.00  0.00    +0.144 HD
ENDBRANCH  11  16
ENDBRANCH   5   7
BRANCH   4  19
ATOM     19  O   LIG    1       19.887  40.876  51.789  0.00  0.00    -0.386 OA
ATOM     20  H   LIG    1       19.511  40.493  52.098  0.00  0.00    +0.210 HD
ENDBRANCH   4  19
BRANCH   3  21
ATOM     21  O   LIG    1       19.517  42.627  50.553  0.00  0.00    -0.386 OA
ATOM     22  H   LIG    1       19.917  42.460  50.109  0.00  0.00    +0.210 HD
ENDBRANCH   3  21
BRANCH   2  23
ATOM     23  C   LIG    1       19.889  44.396  51.763  0.00  0.00    +0.190 C 
BRANCH  23  24
ATOM     24  O   LIG    1       19.114  44.949  52.072  0.00  0.00    -0.392 OA
ATOM     25  H   LIG    1       18.735  45.209  51.657  0.00  0.00    +0.210 HD
ENDBRANCH  23  24
ENDBRANCH   2  23
TORSDOF 6
ENDMDL
MODEL 2
REMARK VINA RESULT:      -8.8      1.288      2.234
REMARK  Name = 44468217
REMARK                            x       y       z     vdW  Elec       q    Type
REMARK                         _______ _______ _______ _____ _____    ______ ____
ROOT
ATOM      1  O   LIG    1       20.326  42.270  52.646  0.00  0.00    -0.357 OA
ATOM      2  C   LIG    1       20.831  43.041  53.035  0.00  0.00    +0.176 C 
ATOM      3  C   LIG    1       20.765  42.982  54.031  0.00  0.00    +0.177 C 
ATOM      4  C   LIG    1       20.220  42.175  54.259  0.00  0.00    +0.183 C 
ATOM      5  C   LIG    1       19.948  41.735  53.402  0.00  0.00    +0.137 C 
ATOM      6  C   LIG    1       19.540  41.098  52.748  0.00  0.00    +0.051 C 
ENDROOT
BRANCH   5   7
ATOM      7  C   LIG    1       19.463  41.029  53.919  0.00  0.00    +0.078 A 
ATOM      8  C   LIG    1       18.609  41.152  54.414  0.00  0.00    +0.028 A 
ATOM      9  C   LIG    1       18.367  40.282  54.830  0.00  0.00    +0.033 A 
ATOM     10  C   LIG    1       19.069  39.620  54.594  0.00  0.00    +0.105 A 
ATOM     11  C   LIG    1       19.181  38.652  54.818  0.00  0.00    +0.144 A 
ATOM     12  N   LIG    1       19.975  38.148  54.477  0.00  0.00    -0.217 NA
ATOM     13  C   LIG    1       20.656  38.613  53.911  0.00  0.00    +0.245 A 
ATOM     14  N   LIG    1       20.544  39.581  53.687  0.00  0.00    -0.154 NA
ATOM     15  N   LIG    1       19.750  40.084  54.028  0.00  0.00    -0.229 N 
BRANCH  11  16
ATOM     16  N   LIG    1       18.500  38.187  55.384  0.00  0.00    -0.341 N 
ATOM     17  H   LIG    1       18.647  38.003  55.958  0.00  0.00    +0.144 HD
ATOM     18  H   LIG    1       17.931  38.084  55.162  0.00  0.00    +0.144 HD
ENDBRANCH  11  16
ENDBRANCH   5   7
BRANCH   4  19
ATOM     19  O   LIG    1       19.987  41.863  55.180  0.00  0.00    -0.386 OA
ATOM     20  H   LIG    1       19.978  42.266  55.651  0.00  0.00    +0.210 HD
ENDBRANCH   4  19
BRANCH   3  21
ATOM     21  O   LIG    1       21.173  43.618  54.686  0.00  0.00    -0.386 OA
ATOM     22  H   LIG    1       21.587  44.038  54.493  0.00  0.00    +0.210 HD
ENDBRANCH   3  21
BRANCH   2  23
ATOM     23  C   LIG    1       21.315  43.746  52.519  0.00  0.00    +0.190 C 
BRANCH  23  24
ATOM     24  O   LIG    1       20.873  44.185  51.736  0.00  0.00    -0.392 OA
ATOM     25  H   LIG    1       20.405  43.901  51.446  0.00  0.00    +0.210 HD
ENDBRANCH  23  24
ENDBRANCH   2  23
TORSDOF 6
ENDMDL
MODEL 3
REMARK VINA RESULT:      -8.6      2.128      4.305
REMARK  Name = 44468217
REMARK                            x       y       z     vdW  Elec       q    Type
REMARK                         _______ _______ _______ _____ _____    ______ ____
ROOT
ATOM      1  O   LIG    1       20.362  39.622  53.897  0.00  0.00    -0.357 OA
ATOM      2  C   LIG    1       19.598  39.273  54.440  0.00  0.00    +0.176 C 
ATOM      3  C   LIG    1       19.000  40.044  54.662  0.00  0.00    +0.177 C 
ATOM      4  C   LIG    1       19.393  40.869  54.256  0.00  0.00    +0.183 C 
ATOM      5  C   LIG    1       20.236  40.608  53.783  0.00  0.00    +0.137 C 
ATOM      6  C   LIG    1       21.080  40.655  53.249  0.00  0.00    +0.051 C 
ENDROOT
BRANCH   5   7
ATOM      7  C   LIG    1       20.376  41.560  53.510  0.00  0.00    +0.078 A 
ATOM      8  C   LIG    1       20.773  42.276  54.074  0.00  0.00    +0.028 A 
ATOM      9  C   LIG    1       20.786  43.115  53.541  0.00  0.00    +0.033 A 
ATOM     10  C   LIG    1       20.399  42.921  52.647  0.00  0.00    +0.105 A 
ATOM     11  C   LIG    1       20.242  43.496  51.844  0.00  0.00    +0.144 A 
ATOM     12  N   LIG    1       19.831  43.104  51.021  0.00  0.00    -0.217 NA
ATOM     13  C   LIG    1       19.576  42.137  51.002  0.00  0.00    +0.245 A 
ATOM     14  N   LIG    1       19.732  41.562  51.805  0.00  0.00    -0.154 NA
ATOM     15  N   LIG    1       20.144  41.954  52.628  0.00  0.00    -0.229 N 
BRANCH  11  16
ATOM     16  N   LIG    1       20.497  44.462  51.863  0.00  0.00    -0.341 N 
ATOM     17  H   LIG    1       20.508  44.791  51.337  0.00  0.00    +0.144 HD
ATOM     18  H   LIG    1       20.645  44.733  52.401  0.00  0.00    +0.144 HD
ENDBRANCH  11  16
ENDBRANCH   5   7
BRANCH   4  19
ATOM     19  O   LIG    1       19.012  41.791  54.312  0.00  0.00    -0.386 OA
ATOM     20  H   LIG    1       19.237  42.195  54.725  0.00  0.00    +0.210 HD
ENDBRANCH   4  19
BRANCH   3  21
ATOM     21  O   LIG    1       18.155  39.997  55.195  0.00  0.00    -0.386 OA
ATOM     22  H   LIG    1       17.740  40.457  55.159  0.00  0.00    +0.210 HD
ENDBRANCH   3  21
BRANCH   2  23
ATOM     23  C   LIG    1       19.457  38.323  54.714  0.00  0.00    +0.190 C 
BRANCH  23  24
ATOM     24  O   LIG    1       19.005  37.685  54.089  0.00  0.00    -0.392 OA
ATOM     25  H   LIG    1       18.712  37.900  53.586  0.00  0.00    +0.210 HD
ENDBRANCH  23  24
ENDBRANCH   2  23
TORSDOF 6
ENDMDL
MODEL 4
REMARK VINA RESULT:      -8.0      2.391      4.202
REMARK  Name = 44468217
REMARK                            x       y       z     vdW  Elec       q    Type
REMARK                         _______ _______ _______ _____ _____    ______ ____
ROOT
ATOM      1  O   LIG    1       18.440  39.922  54.589  0.00  0.00    -0.357 OA
ATOM      2  C   LIG    1       18.701  38.987  54.827  0.00  0.00    +0.176 C 
ATOM      3  C   LIG    1       19.646  38.846  54.531  0.00  0.00    +0.177 C 
ATOM      4  C   LIG    1       19.969  39.693  54.109  0.00  0.00    +0.183 C 
ATOM      5  C   LIG    1       19.222  40.358  54.145  0.00  0.00    +0.137 C 
ATOM      6  C   LIG    1       18.693  41.200  54.038  0.00  0.00    +0.051 C 
ENDROOT
BRANCH   5   7
ATOM      7  C   LIG    1       19.804  41.034  53.691  0.00  0.00    +0.078 A 
ATOM      8  C   LIG    1       20.086  41.013  52.737  0.00  0.00    +0.028 A 
ATOM      9  C   LIG    1       20.657  41.809  52.568  0.00  0.00    +0.033 A 
ATOM     10  C   LIG    1       20.729  42.324  53.415  0.00  0.00    +0.105 A 
ATOM     11  C   LIG    1       21.209  43.171  53.647  0.00  0.00    +0.144 A 
ATOM     12  N   LIG    1       21.157  43.535  54.576  0.00  0.00    -0.217 NA
ATOM     13  C   LIG    1       20.627  43.054  55.274  0.00  0.00    +0.245 A 
ATOM     14  N   LIG    1       20.148  42.207  55.042  0.00  0.00    -0.154 NA
ATOM     15  N   LIG    1       20.199  41.842  54.112  0.00  0.00    -0.229 N 
BRANCH  11  16
ATOM     16  N   LIG    1       21.739  43.652  52.949  0.00  0.00    -0.341 N 
ATOM     17  H   LIG    1       21.944  43.347  52.450  0.00  0.00    +0.144 HD
ATOM     18  H   LIG    1       21.863  44.256  53.016  0.00  0.00    +0.144 HD
ENDBRANCH  11  16
ENDBRANCH   5   7
BRANCH   4  19
ATOM     19  O   LIG    1       20.877  39.848  53.721  0.00  0.00    -0.386 OA
ATOM     20  H   LIG    1       21.176  39.385  53.437  0.00  0.00    +0.210 HD
ENDBRANCH   4  19
BRANCH   3  21
ATOM     21  O   LIG    1       20.176  38.004  54.637  0.00  0.00    -0.386 OA
ATOM     22  H   LIG    1       20.313  37.794  55.205  0.00  0.00    +0.210 HD
ENDBRANCH   3  21
BRANCH   2  23
ATOM     23  C   LIG    1       18.121  38.311  55.281  0.00  0.00    +0.190 C 
BRANCH  23  24
ATOM     24  O   LIG    1       17.140  38.285  55.088  0.00  0.00    -0.392 OA
ATOM     25  H   LIG    1       16.934  38.016  54.568  0.00  0.00    +0.210 HD
ENDBRANCH  23  24
ENDBRANCH   2  23
TORSDOF 6
ENDMDL
MODEL 5
REMARK VINA RESULT:      -6.7     14.833     16.731
REMARK  Name = 44468217
REMARK                            x       y       z     vdW  Elec       q    Type
REMARK                         _______ _______ _______ _____ _____    ______ ____
ROOT
ATOM      1  O   LIG    1       28.297  30.125  63.466  0.00  0.00    -0.357 OA
ATOM      2  C   LIG    1       28.756  30.294  64.338  0.00  0.00    +0.176 C 
ATOM      3  C   LIG    1       28.225  30.979  64.838  0.00  0.00    +0.177 C 
ATOM      4  C   LIG    1       27.439  31.234  64.275  0.00  0.00    +0.183 C 
ATOM      5  C   LIG    1       27.484  30.705  63.427  0.00  0.00    +0.137 C 
ATOM      6  C   LIG    1       27.265  30.339  62.522  0.00  0.00    +0.051 C 
ENDROOT
BRANCH   5   7
ATOM      7  C   LIG    1       26.642  31.145  63.110  0.00  0.00    +0.078 A 
ATOM      8  C   LIG    1       26.571  32.056  62.718  0.00  0.00    +0.028 A 
ATOM      9  C   LIG    1       25.617  32.222  62.497  0.00  0.00    +0.033 A 
ATOM     10  C   LIG    1       25.094  31.416  62.752  0.00  0.00    +0.105 A 
ATOM     11  C   LIG    1       24.120  31.200  62.688  0.00  0.00    +0.144 A 
ATOM     12  N   LIG    1       23.783  30.313  63.005  0.00  0.00    -0.217 NA
ATOM     13  C   LIG    1       24.421  29.644  63.386  0.00  0.00    +0.245 A 
ATOM     14  N   LIG    1       25.395  29.860  63.450  0.00  0.00    -0.154 NA
ATOM     15  N   LIG    1       25.732  30.746  63.133  0.00  0.00    -0.229 N 
BRANCH  11  16
ATOM     16  N   LIG    1       23.483  31.870  62.307  0.00  0.00    -0.341 N 
ATOM     17  H   LIG    1       23.699  32.360  61.994  0.00  0.00    +0.144 HD
ATOM     18  H   LIG    1       22.872  31.795  62.384  0.00  0.00    +0.144 HD
ENDBRANCH  11  16
ENDBRANCH   5   7
BRANCH   4  19
ATOM     19  O   LIG    1       26.733  31.899  64.518  0.00  0.00    -0.386 OA
ATOM     20  H   LIG    1       26.324  32.087  64.091  0.00  0.00    +0.210 HD
ENDBRANCH   4  19
BRANCH   3  21
ATOM     21  O   LIG    1       28.443  31.345  65.743  0.00  0.00    -0.386 OA
ATOM     22  H   LIG    1       28.979  31.195  66.018  0.00  0.00    +0.210 HD
ENDBRANCH   3  21
BRANCH   2  23
ATOM     23  C   LIG    1       29.596  29.856  64.655  0.00  0.00    +0.190 C 
BRANCH  23  24
ATOM     24  O   LIG    1       30.062  29.190  64.072  0.00  0.00    -0.392 OA
ATOM     25  H   LIG    1       29.824  28.621  64.001  0.00  0.00    +0.210 HD
ENDBRANCH  23  24
ENDBRANCH   2  23
TORSDOF 6
ENDMDL
MODEL 6
REMARK VINA RESULT:      -6.6     13.955     15.807
REMARK  Name = 44468217
REMARK                            x       y       z     vdW  Elec       q    Type
REMARK                         _______ _______ _______ _____ _____    ______ ____
ROOT
ATOM      1  O   LIG    1       24.587  32.175  62.470  0.00  0.00    -0.357 OA
ATOM      2  C   LIG    1       23.680  31.765  62.555  0.00  0.00    +0.176 C 
ATOM      3  C   LIG    1       23.797  30.808  62.822  0.00  0.00    +0.177 C 
ATOM      4  C   LIG    1       24.777  30.626  62.901  0.00  0.00    +0.183 C 
ATOM      5  C   LIG    1       25.266  31.472  62.684  0.00  0.00    +0.137 C 
ATOM      6  C   LIG    1       26.001  32.132  62.526  0.00  0.00    +0.051 C 
ENDROOT
BRANCH   5   7
ATOM      7  C   LIG    1       26.138  31.007  62.839  0.00  0.00    +0.078 A 
ATOM      8  C   LIG    1       26.601  30.406  62.196  0.00  0.00    +0.028 A 
ATOM      9  C   LIG    1       27.443  30.091  62.619  0.00  0.00    +0.033 A 
ATOM     10  C   LIG    1       27.503  30.495  63.525  0.00  0.00    +0.105 A 
ATOM     11  C   LIG    1       28.190  30.422  64.248  0.00  0.00    +0.144 A 
ATOM     12  N   LIG    1       28.066  30.918  65.108  0.00  0.00    -0.217 NA
ATOM     13  C   LIG    1       27.255  31.487  65.244  0.00  0.00    +0.245 A 
ATOM     14  N   LIG    1       26.568  31.560  64.521  0.00  0.00    -0.154 NA
ATOM     15  N   LIG    1       26.693  31.064  63.662  0.00  0.00    -0.229 N 
BRANCH  11  16
ATOM     16  N   LIG    1       29.001  29.853  64.112  0.00  0.00    -0.341 N 
ATOM     17  H   LIG    1       29.268  29.822  63.553  0.00  0.00    +0.144 HD
ATOM     18  H   LIG    1       29.237  29.531  64.586  0.00  0.00    +0.144 HD
ENDBRANCH  11  16
ENDBRANCH   5   7
BRANCH   4  19
ATOM     19  O   LIG    1       25.195  29.754  63.154  0.00  0.00    -0.386 OA
ATOM     20  H   LIG    1       25.810  29.712  63.219  0.00  0.00    +0.210 HD
ENDBRANCH   4  19
BRANCH   3  21
ATOM     21  O   LIG    1       23.063  30.148  62.980  0.00  0.00    -0.386 OA
ATOM     22  H   LIG    1       22.743  29.918  62.500  0.00  0.00    +0.210 HD
ENDBRANCH   3  21
BRANCH   2  23
ATOM     23  C   LIG    1       22.808  32.229  62.401  0.00  0.00    +0.190 C 
BRANCH  23  24
ATOM     24  O   LIG    1       22.684  32.803  61.591  0.00  0.00    -0.392 OA
ATOM     25  H   LIG    1       22.813  33.410  61.619  0.00  0.00    +0.210 HD
ENDBRANCH  23  24
ENDBRANCH   2  23
TORSDOF 6
ENDMDL
MODEL 7
REMARK VINA RESULT:      -6.0     14.261     15.776
REMARK  Name = 44468217
REMARK                            x       y       z     vdW  Elec       q    Type
REMARK                         _______ _______ _______ _____ _____    ______ ____
ROOT
ATOM      1  O   LIG    1       23.447  30.810  63.482  0.00  0.00    -0.357 OA
ATOM      2  C   LIG    1       23.040  31.549  62.946  0.00  0.00    +0.176 C 
ATOM      3  C   LIG    1       23.756  31.941  62.368  0.00  0.00    +0.177 C 
ATOM      4  C   LIG    1       24.606  31.445  62.546  0.00  0.00    +0.183 C 
ATOM      5  C   LIG    1       24.414  30.745  63.235  0.00  0.00    +0.137 C 
ATOM      6  C   LIG    1       24.528  29.988  63.879  0.00  0.00    +0.051 C 
ENDROOT
BRANCH   5   7
ATOM      7  C   LIG    1       25.369  30.450  63.200  0.00  0.00    +0.078 A 
ATOM      8  C   LIG    1       25.769  29.846  62.517  0.00  0.00    +0.028 A 
ATOM      9  C   LIG    1       26.731  29.731  62.734  0.00  0.00    +0.033 A 
ATOM     10  C   LIG    1       26.931  30.261  63.551  0.00  0.00    +0.105 A 
ATOM     11  C   LIG    1       27.773  30.399  64.073  0.00  0.00    +0.144 A 
ATOM     12  N   LIG    1       27.768  30.984  64.884  0.00  0.00    -0.217 NA
ATOM     13  C   LIG    1       26.921  31.431  65.173  0.00  0.00    +0.245 A 
ATOM     14  N   LIG    1       26.080  31.293  64.651  0.00  0.00    -0.154 NA
ATOM     15  N   LIG    1       26.085  30.708  63.840  0.00  0.00    -0.229 N 
BRANCH  11  16
ATOM     16  N   LIG    1       28.619  29.952  63.784  0.00  0.00    -0.341 N 
ATOM     17  H   LIG    1       29.030  30.261  63.437  0.00  0.00    +0.144 HD
ATOM     18  H   LIG    1       28.733  29.366  63.951  0.00  0.00    +0.144 HD
ENDBRANCH  11  16
ENDBRANCH   5   7
BRANCH   4  19
ATOM     19  O   LIG    1       25.490  31.617  62.113  0.00  0.00    -0.386 OA
ATOM     20  H   LIG    1       25.698  31.236  61.671  0.00  0.00    +0.210 HD
ENDBRANCH   4  19
BRANCH   3  21
ATOM     21  O   LIG    1       23.643  32.698  61.724  0.00  0.00    -0.386 OA
ATOM     22  H   LIG    1       23.113  33.020  61.714  0.00  0.00    +0.210 HD
ENDBRANCH   3  21
BRANCH   2  23
ATOM     23  C   LIG    1       22.086  31.844  62.981  0.00  0.00    +0.190 C 
BRANCH  23  24
ATOM     24  O   LIG    1       21.358  31.214  62.711  0.00  0.00    -0.392 OA
ATOM     25  H   LIG    1       21.501  30.663  62.464  0.00  0.00    +0.210 HD
ENDBRANCH  23  24
ENDBRANCH   2  23
TORSDOF 6
ENDMDL
MODEL 8
REMARK VINA RESULT:      -5.9     12.645     13.727
REMARK  Name = 44468217
REMARK                            x       y       z     vdW  Elec       q    Type
REMARK                         _______ _______ _______ _____ _____    ______ ____
ROOT
ATOM      1  O   LIG    1       21.999  32.369  62.241  0.00  0.00    -0.357 OA
ATOM      2  C   LIG    1       22.559  31.799  62.842  0.00  0.00    +0.176 C 
ATOM      3  C   LIG    1       22.083  31.714  63.718  0.00  0.00    +0.177 C 
ATOM      4  C   LIG    1       21.229  32.231  63.658  0.00  0.00    +0.183 C 
ATOM      5  C   LIG    1       21.178  32.636  62.745  0.00  0.00    +0.137 C 
ATOM      6  C   LIG    1       20.855  33.149  61.949  0.00  0.00    +0.051 C 
ENDROOT
BRANCH   5   7
ATOM      7  C   LIG    1       20.297  33.048  62.978  0.00  0.00    +0.078 A 
ATOM      8  C   LIG    1       20.163  33.877  63.511  0.00  0.00    +0.028 A 
ATOM      9  C   LIG    1       19.186  34.044  63.581  0.00  0.00    +0.033 A 
ATOM     10  C   LIG    1       18.712  33.320  63.093  0.00  0.00    +0.105 A 
ATOM     11  C   LIG    1       17.741  33.139  62.938  0.00  0.00    +0.144 A 
ATOM     12  N   LIG    1       17.460  32.340  62.408  0.00  0.00    -0.217 NA
ATOM     13  C   LIG    1       18.150  31.720  62.033  0.00  0.00    +0.245 A 
ATOM     14  N   LIG    1       19.121  31.901  62.188  0.00  0.00    -0.154 NA
ATOM     15  N   LIG    1       19.402  32.701  62.718  0.00  0.00    -0.229 N 
BRANCH  11  16
ATOM     16  N   LIG    1       17.051  33.759  63.313  0.00  0.00    -0.341 N 
ATOM     17  H   LIG    1       17.198  34.142  63.777  0.00  0.00    +0.144 HD
ATOM     18  H   LIG    1       16.476  33.759  63.081  0.00  0.00    +0.144 HD
ENDBRANCH  11  16
ENDBRANCH   5   7
BRANCH   4  19
ATOM     19  O   LIG    1       20.547  32.326  64.383  0.00  0.00    -0.386 OA
ATOM     20  H   LIG    1       20.697  32.608  64.914  0.00  0.00    +0.210 HD
ENDBRANCH   4  19
BRANCH   3  21
ATOM     21  O   LIG    1       22.404  31.201  64.514  0.00  0.00    -0.386 OA
ATOM     22  H   LIG    1       22.261  30.600  64.574  0.00  0.00    +0.210 HD
ENDBRANCH   3  21
BRANCH   2  23
ATOM     23  C   LIG    1       23.439  31.386  62.609  0.00  0.00    +0.190 C 
BRANCH  23  24
ATOM     24  O   LIG    1       24.194  31.963  62.296  0.00  0.00    -0.392 OA
ATOM     25  H   LIG    1       24.128  32.310  61.786  0.00  0.00    +0.210 HD
ENDBRANCH  23  24
ENDBRANCH   2  23
TORSDOF 6
ENDMDL
MODEL 9
REMARK VINA RESULT:      -5.8     12.709     13.782
REMARK  Name = 44468217
REMARK                            x       y       z     vdW  Elec       q    Type
REMARK                         _______ _______ _______ _____ _____    ______ ____
ROOT
ATOM      1  O   LIG    1       22.077  32.328  62.313  0.00  0.00    -0.357 OA
ATOM      2  C   LIG    1       22.535  31.576  62.785  0.00  0.00    +0.176 C 
ATOM      3  C   LIG    1       21.862  31.125  63.372  0.00  0.00    +0.177 C 
ATOM      4  C   LIG    1       20.988  31.598  63.261  0.00  0.00    +0.183 C 
ATOM      5  C   LIG    1       21.121  32.342  62.606  0.00  0.00    +0.137 C 
ATOM      6  C   LIG    1       20.949  33.129  62.013  0.00  0.00    +0.051 C 
ENDROOT
BRANCH   5   7
ATOM      7  C   LIG    1       20.158  32.597  62.703  0.00  0.00    +0.078 A 
ATOM      8  C   LIG    1       19.390  32.157  62.252  0.00  0.00    +0.028 A 
ATOM      9  C   LIG    1       18.558  32.622  62.535  0.00  0.00    +0.033 A 
ATOM     10  C   LIG    1       18.810  33.351  63.162  0.00  0.00    +0.105 A 
ATOM     11  C   LIG    1       18.266  34.031  63.654  0.00  0.00    +0.144 A 
ATOM     12  N   LIG    1       18.716  34.695  64.251  0.00  0.00    -0.217 NA
ATOM     13  C   LIG    1       19.711  34.680  64.355  0.00  0.00    +0.245 A 
ATOM     14  N   LIG    1       20.255  34.000  63.862  0.00  0.00    -0.154 NA
ATOM     15  N   LIG    1       19.804  33.336  63.266  0.00  0.00    -0.229 N 
BRANCH  11  16
ATOM     16  N   LIG    1       17.271  34.046  63.550  0.00  0.00    -0.341 N 
ATOM     17  H   LIG    1       17.017  33.954  62.992  0.00  0.00    +0.144 HD
ATOM     18  H   LIG    1       16.909  34.147  64.043  0.00  0.00    +0.144 HD
ENDBRANCH  11  16
ENDBRANCH   5   7
BRANCH   4  19
ATOM     19  O   LIG    1       20.132  31.367  63.724  0.00  0.00    -0.386 OA
ATOM     20  H   LIG    1       19.633  31.210  63.392  0.00  0.00    +0.210 HD
ENDBRANCH   4  19
BRANCH   3  21
ATOM     21  O   LIG    1       22.033  30.338  63.965  0.00  0.00    -0.386 OA
ATOM     22  H   LIG    1       21.644  30.210  64.431  0.00  0.00    +0.210 HD
ENDBRANCH   3  21
BRANCH   2  23
ATOM     23  C   LIG    1       23.496  31.320  62.689  0.00  0.00    +0.190 C 
BRANCH  23  24
ATOM     24  O   LIG    1       24.158  31.985  62.341  0.00  0.00    -0.392 OA
ATOM     25  H   LIG    1       23.989  32.577  62.262  0.00  0.00    +0.210 HD
ENDBRANCH  23  24
ENDBRANCH   2  23
TORSDOF 6
ENDMDL
