REMARK  Name = 1051
REMARK                            x       y       z     vdW  Elec       q    Type
REMARK                         _______ _______ _______ _____ _____    ______ ____
ROOT
ATOM      1  C   LIG    1        0.239   0.451   0.435  0.00  0.00    +0.010 A 
ATOM      2  C   LIG    1        0.782   1.726   0.440  0.00  0.00    +0.117 A 
ATOM      3  N   LIG    1        2.075   1.998   0.154  0.00  0.00    -0.256 NA
ATOM      4  C   LIG    1        2.859   0.939  -0.149  0.00  0.00    +0.080 A 
ATOM      5  C   LIG    1        4.285   1.254  -0.463  0.00  0.00    +0.069 C 
ATOM      6  C   LIG    1        2.413  -0.372  -0.181  0.00  0.00    +0.148 A 
ATOM      7  C   LIG    1        1.077  -0.613   0.118  0.00  0.00    +0.064 A 
ENDROOT
BRANCH   6   8
ATOM      8  O   LIG    1        3.257  -1.390  -0.496  0.00  0.00    -0.504 OA
ATOM      9  H   LIG    1        4.152  -1.065  -0.678  0.00  0.00    +0.292 HD
ENDBRANCH   6   8
BRANCH   7  10
ATOM     10  C   LIG    1        0.559  -1.976   0.099  0.00  0.00    +0.262 C 
ATOM     11  O   LIG    1        1.253  -2.959   0.360  0.00  0.00    -0.296 OA
ENDBRANCH   7  10
BRANCH   1  12
ATOM     12  C   LIG    1       -1.201   0.256   0.765  0.00  0.00    +0.210 C 
BRANCH  12  13
ATOM     13  O   LIG    1       -1.975   0.333  -0.426  0.00  0.00    -0.282 OA
BRANCH  13  14
ATOM     14  P   LIG    1       -3.576   0.149  -0.313  0.00  0.00    +0.473 P 
ATOM     15  O   LIG    1       -4.321   0.244  -1.612  0.00  0.00    -0.228 OA
BRANCH  14  16
ATOM     16  O   LIG    1       -3.720  -1.267   0.455  0.00  0.00    -0.303 OA
ATOM     17  H   LIG    1       -4.612  -1.657   0.569  0.00  0.00    +0.222 HD
ENDBRANCH  14  16
BRANCH  14  18
ATOM     18  O   LIG    1       -4.009   1.228   0.812  0.00  0.00    -0.303 OA
ATOM     19  H   LIG    1       -4.962   1.347   1.013  0.00  0.00    +0.222 HD
ENDBRANCH  14  18
ENDBRANCH  13  14
ENDBRANCH  12  13
ENDBRANCH   1  12
TORSDOF 7
