MODEL 1
REMARK VINA RESULT:      -6.5      0.000      0.000
REMARK  Name = 25000921
REMARK                            x       y       z     vdW  Elec       q    Type
REMARK                         _______ _______ _______ _____ _____    ______ ____
ROOT
ATOM      1  C   LIG    1       17.915  32.256  62.587  0.00  0.00    +0.177 C 
ATOM      2  C   LIG    1       18.015  33.117  63.085  0.00  0.00    +0.180 C 
ATOM      3  C   LIG    1       18.985  33.358  63.094  0.00  0.00    +0.123 C 
ATOM      4  C   LIG    1       19.844  33.843  63.264  0.00  0.00    +0.047 C 
ATOM      5  C   LIG    1       19.486  32.646  62.603  0.00  0.00    +0.201 C 
ATOM      6  O   LIG    1       18.824  31.964  62.289  0.00  0.00    -0.359 OA
ENDROOT
BRANCH   5   7
ATOM      7  C   LIG    1       20.473  32.619  62.451  0.00  0.00    +0.075 A 
ATOM      8  C   LIG    1       20.996  33.254  61.893  0.00  0.00    +0.028 A 
ATOM      9  C   LIG    1       21.951  32.982  61.926  0.00  0.00    +0.033 A 
ATOM     10  C   LIG    1       22.023  32.178  62.505  0.00  0.00    +0.105 A 
ATOM     11  C   LIG    1       22.803  31.617  62.781  0.00  0.00    +0.144 A 
ATOM     12  N   LIG    1       22.666  30.830  63.383  0.00  0.00    -0.217 NA
ATOM     13  C   LIG    1       21.748  30.604  63.709  0.00  0.00    +0.245 A 
ATOM     14  N   LIG    1       20.967  31.165  63.433  0.00  0.00    -0.154 NA
ATOM     15  N   LIG    1       21.105  31.952  62.831  0.00  0.00    -0.229 N 
BRANCH  11  16
ATOM     16  N   LIG    1       23.721  31.843  62.455  0.00  0.00    -0.341 N 
ATOM     17  H   LIG    1       23.796  32.118  61.904  0.00  0.00    +0.144 HD
ATOM     18  H   LIG    1       24.216  31.708  62.804  0.00  0.00    +0.144 HD
ENDBRANCH  11  16
ENDBRANCH   5   7
BRANCH   3  19
ATOM     19  O   LIG    1       18.775  34.186  63.615  0.00  0.00    -0.383 OA
ATOM     20  H   LIG    1       18.419  34.627  63.364  0.00  0.00    +0.210 HD
ENDBRANCH   3  19
BRANCH   2  21
ATOM     21  O   LIG    1       17.274  33.646  63.500  0.00  0.00    -0.386 OA
ATOM     22  H   LIG    1       17.189  33.630  64.115  0.00  0.00    +0.210 HD
ENDBRANCH   2  21
BRANCH   1  23
ATOM     23  C   LIG    1       17.057  31.771  62.418  0.00  0.00    +0.206 C 
BRANCH  23  24
ATOM     24  O   LIG    1       16.630  31.813  61.514  0.00  0.00    -0.284 OA
BRANCH  24  25
ATOM     25  P   LIG    1       16.009  31.086  61.221  0.00  0.00    +0.483 P 
ATOM     26  O   LIG    1       15.338  31.385  61.898  0.00  0.00    -0.227 OA
BRANCH  25  27
ATOM     27  O   LIG    1       16.681  30.786  60.543  0.00  0.00    -0.302 OA
ATOM     28  H   LIG    1       16.507  30.692  59.955  0.00  0.00    +0.222 HD
ENDBRANCH  25  27
BRANCH  25  29
ATOM     29  O   LIG    1       15.388  30.358  60.928  0.00  0.00    -0.186 OA
BRANCH  29  30
ATOM     30  P   LIG    1       14.832  30.479  60.105  0.00  0.00    +0.492 P 
ATOM     31  O   LIG    1       14.030  30.660  60.673  0.00  0.00    -0.226 OA
BRANCH  30  32
ATOM     32  O   LIG    1       15.634  30.297  59.536  0.00  0.00    -0.302 OA
ATOM     33  H   LIG    1       15.584  30.308  58.918  0.00  0.00    +0.222 HD
ENDBRANCH  30  32
BRANCH  30  34
ATOM     34  O   LIG    1       14.276  30.599  59.283  0.00  0.00    -0.186 OA
BRANCH  34  35
ATOM     35  P   LIG    1       13.955  29.799  58.775  0.00  0.00    +0.481 P 
ATOM     36  O   LIG    1       13.102  29.811  59.295  0.00  0.00    -0.227 OA
BRANCH  35  37
ATOM     37  O   LIG    1       14.809  29.788  58.254  0.00  0.00    -0.302 OA
ATOM     38  H   LIG    1       14.941  30.250  57.863  0.00  0.00    +0.222 HD
ENDBRANCH  35  37
BRANCH  35  39
ATOM     39  O   LIG    1       13.635  29.000  58.267  0.00  0.00    -0.302 OA
ATOM     40  H   LIG    1       14.040  28.570  58.077  0.00  0.00    +0.222 HD
ENDBRANCH  35  39
ENDBRANCH  34  35
ENDBRANCH  30  34
ENDBRANCH  29  30
ENDBRANCH  25  29
ENDBRANCH  24  25
ENDBRANCH  23  24
ENDBRANCH   1  23
TORSDOF 15
ENDMDL
MODEL 2
REMARK VINA RESULT:      -6.4      7.002      9.912
REMARK  Name = 25000921
REMARK                            x       y       z     vdW  Elec       q    Type
REMARK                         _______ _______ _______ _____ _____    ______ ____
ROOT
ATOM      1  C   LIG    1       24.833  31.166  63.561  0.00  0.00    +0.177 C 
ATOM      2  C   LIG    1       24.622  30.207  63.370  0.00  0.00    +0.180 C 
ATOM      3  C   LIG    1       23.629  30.122  63.279  0.00  0.00    +0.123 C 
ATOM      4  C   LIG    1       22.716  29.738  63.140  0.00  0.00    +0.047 C 
ATOM      5  C   LIG    1       23.228  31.028  63.414  0.00  0.00    +0.201 C 
ATOM      6  O   LIG    1       23.972  31.673  63.588  0.00  0.00    -0.359 OA
ENDROOT
BRANCH   5   7
ATOM      7  C   LIG    1       22.254  31.250  63.380  0.00  0.00    +0.075 A 
ATOM      8  C   LIG    1       21.545  30.856  63.955  0.00  0.00    +0.028 A 
ATOM      9  C   LIG    1       20.675  31.265  63.699  0.00  0.00    +0.033 A 
ATOM     10  C   LIG    1       20.844  31.913  62.965  0.00  0.00    +0.105 A 
ATOM     11  C   LIG    1       20.235  32.514  62.447  0.00  0.00    +0.144 A 
ATOM     12  N   LIG    1       20.606  33.106  61.732  0.00  0.00    -0.217 NA
ATOM     13  C   LIG    1       21.587  33.097  61.534  0.00  0.00    +0.245 A 
ATOM     14  N   LIG    1       22.196  32.496  62.051  0.00  0.00    -0.154 NA
ATOM     15  N   LIG    1       21.825  31.904  62.767  0.00  0.00    -0.229 N 
BRANCH  11  16
ATOM     16  N   LIG    1       19.255  32.523  62.645  0.00  0.00    -0.341 N 
ATOM     17  H   LIG    1       19.045  32.801  63.158  0.00  0.00    +0.144 HD
ATOM     18  H   LIG    1       18.858  32.251  62.255  0.00  0.00    +0.144 HD
ENDBRANCH  11  16
ENDBRANCH   5   7
BRANCH   3  19
ATOM     19  O   LIG    1       23.728  29.142  63.109  0.00  0.00    -0.383 OA
ATOM     20  H   LIG    1       23.225  28.784  63.056  0.00  0.00    +0.210 HD
ENDBRANCH   3  19
BRANCH   2  21
ATOM     21  O   LIG    1       25.285  29.464  63.285  0.00  0.00    -0.386 OA
ATOM     22  H   LIG    1       25.157  28.905  63.524  0.00  0.00    +0.210 HD
ENDBRANCH   2  21
BRANCH   1  23
ATOM     23  C   LIG    1       25.746  31.549  63.700  0.00  0.00    +0.206 C 
BRANCH  23  24
ATOM     24  O   LIG    1       26.015  31.883  64.604  0.00  0.00    -0.284 OA
BRANCH  24  25
ATOM     25  P   LIG    1       26.786  32.514  64.693  0.00  0.00    +0.483 P 
ATOM     26  O   LIG    1       27.091  32.025  65.510  0.00  0.00    -0.227 OA
BRANCH  25  27
ATOM     27  O   LIG    1       26.481  33.004  63.876  0.00  0.00    -0.302 OA
ATOM     28  H   LIG    1       26.453  33.624  63.879  0.00  0.00    +0.222 HD
ENDBRANCH  25  27
BRANCH  25  29
ATOM     29  O   LIG    1       27.557  33.145  64.783  0.00  0.00    -0.186 OA
BRANCH  29  30
ATOM     30  P   LIG    1       27.499  33.917  65.416  0.00  0.00    +0.492 P 
ATOM     31  O   LIG    1       28.088  33.433  66.062  0.00  0.00    -0.226 OA
BRANCH  30  32
ATOM     32  O   LIG    1       26.909  34.402  64.770  0.00  0.00    -0.302 OA
ATOM     33  H   LIG    1       27.149  34.641  64.250  0.00  0.00    +0.222 HD
ENDBRANCH  30  32
BRANCH  30  34
ATOM     34  O   LIG    1       27.441  34.690  66.048  0.00  0.00    -0.186 OA
BRANCH  34  35
ATOM     35  P   LIG    1       27.802  35.583  65.781  0.00  0.00    +0.481 P 
ATOM     36  O   LIG    1       26.884  35.973  65.841  0.00  0.00    -0.227 OA
BRANCH  35  37
ATOM     37  O   LIG    1       28.721  35.192  65.720  0.00  0.00    -0.302 OA
ATOM     38  H   LIG    1       29.189  35.533  65.499  0.00  0.00    +0.222 HD
ENDBRANCH  35  37
BRANCH  35  39
ATOM     39  O   LIG    1       28.165  36.476  65.513  0.00  0.00    -0.302 OA
ATOM     40  H   LIG    1       28.714  36.515  65.229  0.00  0.00    +0.222 HD
ENDBRANCH  35  39
ENDBRANCH  34  35
ENDBRANCH  30  34
ENDBRANCH  29  30
ENDBRANCH  25  29
ENDBRANCH  24  25
ENDBRANCH  23  24
ENDBRANCH   1  23
TORSDOF 15
ENDMDL
MODEL 3
REMARK VINA RESULT:      -6.4      6.675      9.395
REMARK  Name = 25000921
REMARK                            x       y       z     vdW  Elec       q    Type
REMARK                         _______ _______ _______ _____ _____    ______ ____
ROOT
ATOM      1  C   LIG    1       23.460  30.780  63.189  0.00  0.00    +0.177 C 
ATOM      2  C   LIG    1       22.728  30.108  63.301  0.00  0.00    +0.180 C 
ATOM      3  C   LIG    1       21.859  30.602  63.334  0.00  0.00    +0.123 C 
ATOM      4  C   LIG    1       20.881  30.804  63.400  0.00  0.00    +0.047 C 
ATOM      5  C   LIG    1       22.054  31.578  63.244  0.00  0.00    +0.201 C 
ATOM      6  O   LIG    1       23.044  31.689  63.153  0.00  0.00    -0.359 OA
ENDROOT
BRANCH   5   7
ATOM      7  C   LIG    1       21.379  32.316  63.243  0.00  0.00    +0.075 A 
ATOM      8  C   LIG    1       20.817  32.592  62.471  0.00  0.00    +0.028 A 
ATOM      9  C   LIG    1       20.241  33.348  62.761  0.00  0.00    +0.033 A 
ATOM     10  C   LIG    1       20.446  33.542  63.715  0.00  0.00    +0.105 A 
ATOM     11  C   LIG    1       20.082  34.220  64.354  0.00  0.00    +0.144 A 
ATOM     12  N   LIG    1       20.425  34.256  65.293  0.00  0.00    -0.217 NA
ATOM     13  C   LIG    1       21.132  33.614  65.592  0.00  0.00    +0.245 A 
ATOM     14  N   LIG    1       21.495  32.937  64.952  0.00  0.00    -0.154 NA
ATOM     15  N   LIG    1       21.152  32.901  64.014  0.00  0.00    -0.229 N 
BRANCH  11  16
ATOM     16  N   LIG    1       19.375  34.861  64.055  0.00  0.00    -0.341 N 
ATOM     17  H   LIG    1       19.535  35.419  63.837  0.00  0.00    +0.144 HD
ATOM     18  H   LIG    1       18.777  34.700  64.087  0.00  0.00    +0.144 HD
ENDBRANCH  11  16
ENDBRANCH   5   7
BRANCH   3  19
ATOM     19  O   LIG    1       21.371  29.736  63.441  0.00  0.00    -0.383 OA
ATOM     20  H   LIG    1       21.641  29.262  63.737  0.00  0.00    +0.210 HD
ENDBRANCH   3  19
BRANCH   2  21
ATOM     21  O   LIG    1       22.844  29.117  63.367  0.00  0.00    -0.386 OA
ATOM     22  H   LIG    1       23.243  28.826  62.992  0.00  0.00    +0.210 HD
ENDBRANCH   2  21
BRANCH   1  23
ATOM     23  C   LIG    1       24.438  30.578  63.123  0.00  0.00    +0.206 C 
BRANCH  23  24
ATOM     24  O   LIG    1       25.022  30.675  63.929  0.00  0.00    -0.284 OA
BRANCH  24  25
ATOM     25  P   LIG    1       26.014  30.581  63.840  0.00  0.00    +0.483 P 
ATOM     26  O   LIG    1       25.911  29.594  63.724  0.00  0.00    -0.227 OA
BRANCH  25  27
ATOM     27  O   LIG    1       26.118  31.569  63.957  0.00  0.00    -0.302 OA
ATOM     28  H   LIG    1       26.075  31.946  63.466  0.00  0.00    +0.222 HD
ENDBRANCH  25  27
BRANCH  25  29
ATOM     29  O   LIG    1       27.006  30.487  63.752  0.00  0.00    -0.186 OA
BRANCH  29  30
ATOM     30  P   LIG    1       27.583  30.488  64.569  0.00  0.00    +0.492 P 
ATOM     31  O   LIG    1       27.858  31.429  64.375  0.00  0.00    -0.226 OA
BRANCH  30  32
ATOM     32  O   LIG    1       27.308  29.547  64.764  0.00  0.00    -0.302 OA
ATOM     33  H   LIG    1       27.527  29.258  65.267  0.00  0.00    +0.222 HD
ENDBRANCH  30  32
BRANCH  30  34
ATOM     34  O   LIG    1       28.159  30.488  65.386  0.00  0.00    -0.186 OA
BRANCH  34  35
ATOM     35  P   LIG    1       29.105  30.169  65.331  0.00  0.00    +0.481 P 
ATOM     36  O   LIG    1       29.425  31.116  65.321  0.00  0.00    -0.227 OA
BRANCH  35  37
ATOM     37  O   LIG    1       28.785  29.221  65.342  0.00  0.00    -0.302 OA
ATOM     38  H   LIG    1       29.127  28.775  65.081  0.00  0.00    +0.222 HD
ENDBRANCH  35  37
BRANCH  35  39
ATOM     39  O   LIG    1       30.050  29.848  65.276  0.00  0.00    -0.302 OA
ATOM     40  H   LIG    1       30.518  30.254  65.307  0.00  0.00    +0.222 HD
ENDBRANCH  35  39
ENDBRANCH  34  35
ENDBRANCH  30  34
ENDBRANCH  29  30
ENDBRANCH  25  29
ENDBRANCH  24  25
ENDBRANCH  23  24
ENDBRANCH   1  23
TORSDOF 15
ENDMDL
MODEL 4
REMARK VINA RESULT:      -6.3      4.290      5.869
REMARK  Name = 25000921
REMARK                            x       y       z     vdW  Elec       q    Type
REMARK                         _______ _______ _______ _____ _____    ______ ____
ROOT
ATOM      1  C   LIG    1       22.096  30.828  63.409  0.00  0.00    +0.177 C 
ATOM      2  C   LIG    1       22.289  30.374  64.279  0.00  0.00    +0.180 C 
ATOM      3  C   LIG    1       23.252  30.106  64.280  0.00  0.00    +0.123 C 
ATOM      4  C   LIG    1       24.135  29.730  64.564  0.00  0.00    +0.047 C 
ATOM      5  C   LIG    1       23.654  30.393  63.411  0.00  0.00    +0.201 C 
ATOM      6  O   LIG    1       22.940  30.840  62.873  0.00  0.00    -0.359 OA
ENDROOT
BRANCH   5   7
ATOM      7  C   LIG    1       24.604  30.259  63.130  0.00  0.00    +0.075 A 
ATOM      8  C   LIG    1       25.038  29.386  62.938  0.00  0.00    +0.028 A 
ATOM      9  C   LIG    1       25.983  29.559  62.681  0.00  0.00    +0.033 A 
ATOM     10  C   LIG    1       26.136  30.540  62.714  0.00  0.00    +0.105 A 
ATOM     11  C   LIG    1       26.943  31.100  62.527  0.00  0.00    +0.144 A 
ATOM     12  N   LIG    1       26.894  32.094  62.618  0.00  0.00    -0.217 NA
ATOM     13  C   LIG    1       26.038  32.530  62.896  0.00  0.00    +0.245 A 
ATOM     14  N   LIG    1       25.231  31.970  63.084  0.00  0.00    -0.154 NA
ATOM     15  N   LIG    1       25.279  30.975  62.992  0.00  0.00    -0.229 N 
BRANCH  11  16
ATOM     16  N   LIG    1       27.799  30.665  62.248  0.00  0.00    -0.341 N 
ATOM     17  H   LIG    1       27.791  30.100  61.993  0.00  0.00    +0.144 HD
ATOM     18  H   LIG    1       28.338  30.960  62.330  0.00  0.00    +0.144 HD
ENDBRANCH  11  16
ENDBRANCH   5   7
BRANCH   3  19
ATOM     19  O   LIG    1       23.143  29.715  65.194  0.00  0.00    -0.383 OA
ATOM     20  H   LIG    1       22.581  29.694  65.457  0.00  0.00    +0.210 HD
ENDBRANCH   3  19
BRANCH   2  21
ATOM     21  O   LIG    1       21.634  30.216  65.018  0.00  0.00    -0.386 OA
ATOM     22  H   LIG    1       21.828  30.204  65.607  0.00  0.00    +0.210 HD
ENDBRANCH   2  21
BRANCH   1  23
ATOM     23  C   LIG    1       21.213  31.203  63.126  0.00  0.00    +0.206 C 
BRANCH  23  24
ATOM     24  O   LIG    1       21.180  32.029  62.562  0.00  0.00    -0.284 OA
BRANCH  24  25
ATOM     25  P   LIG    1       20.344  32.577  62.530  0.00  0.00    +0.483 P 
ATOM     26  O   LIG    1       20.823  33.278  62.002  0.00  0.00    -0.227 OA
BRANCH  25  27
ATOM     27  O   LIG    1       19.863  31.877  63.058  0.00  0.00    -0.302 OA
ATOM     28  H   LIG    1       20.151  31.346  63.203  0.00  0.00    +0.222 HD
ENDBRANCH  25  27
BRANCH  25  29
ATOM     29  O   LIG    1       19.508  33.126  62.497  0.00  0.00    -0.186 OA
BRANCH  29  30
ATOM     30  P   LIG    1       19.210  33.631  63.307  0.00  0.00    +0.492 P 
ATOM     31  O   LIG    1       18.382  33.073  63.352  0.00  0.00    -0.226 OA
BRANCH  30  32
ATOM     32  O   LIG    1       20.038  34.189  63.264  0.00  0.00    -0.302 OA
ATOM     33  H   LIG    1       20.575  33.935  63.086  0.00  0.00    +0.222 HD
ENDBRANCH  30  32
BRANCH  30  34
ATOM     34  O   LIG    1       18.913  34.136  64.118  0.00  0.00    -0.186 OA
BRANCH  34  35
ATOM     35  P   LIG    1       18.509  35.046  64.019  0.00  0.00    +0.481 P 
ATOM     36  O   LIG    1       19.343  35.456  64.388  0.00  0.00    -0.227 OA
BRANCH  35  37
ATOM     37  O   LIG    1       17.675  34.635  63.650  0.00  0.00    -0.302 OA
ATOM     38  H   LIG    1       17.552  34.675  63.044  0.00  0.00    +0.222 HD
ENDBRANCH  35  37
BRANCH  35  39
ATOM     39  O   LIG    1       18.105  35.955  63.921  0.00  0.00    -0.302 OA
ATOM     40  H   LIG    1       17.503  36.014  63.785  0.00  0.00    +0.222 HD
ENDBRANCH  35  39
ENDBRANCH  34  35
ENDBRANCH  30  34
ENDBRANCH  29  30
ENDBRANCH  25  29
ENDBRANCH  24  25
ENDBRANCH  23  24
ENDBRANCH   1  23
TORSDOF 15
ENDMDL
MODEL 5
REMARK VINA RESULT:      -6.3      1.955      3.316
REMARK  Name = 25000921
REMARK                            x       y       z     vdW  Elec       q    Type
REMARK                         _______ _______ _______ _____ _____    ______ ____
ROOT
ATOM      1  C   LIG    1       20.932  32.301  62.677  0.00  0.00    +0.177 C 
ATOM      2  C   LIG    1       21.618  32.718  62.080  0.00  0.00    +0.180 C 
ATOM      3  C   LIG    1       22.505  32.311  62.298  0.00  0.00    +0.123 C 
ATOM      4  C   LIG    1       23.483  32.100  62.290  0.00  0.00    +0.047 C 
ATOM      5  C   LIG    1       22.368  31.643  63.029  0.00  0.00    +0.201 C 
ATOM      6  O   LIG    1       21.395  31.637  63.264  0.00  0.00    -0.359 OA
ENDROOT
BRANCH   5   7
ATOM      7  C   LIG    1       23.077  31.080  63.453  0.00  0.00    +0.075 A 
ATOM      8  C   LIG    1       23.502  30.276  63.050  0.00  0.00    +0.028 A 
ATOM      9  C   LIG    1       24.169  29.922  63.697  0.00  0.00    +0.033 A 
ATOM     10  C   LIG    1       24.158  30.505  64.501  0.00  0.00    +0.105 A 
ATOM     11  C   LIG    1       24.676  30.479  65.356  0.00  0.00    +0.144 A 
ATOM     12  N   LIG    1       24.517  31.172  66.059  0.00  0.00    -0.217 NA
ATOM     13  C   LIG    1       23.838  31.891  65.908  0.00  0.00    +0.245 A 
ATOM     14  N   LIG    1       23.320  31.917  65.053  0.00  0.00    -0.154 NA
ATOM     15  N   LIG    1       23.479  31.224  64.350  0.00  0.00    -0.229 N 
BRANCH  11  16
ATOM     16  N   LIG    1       25.355  29.760  65.507  0.00  0.00    -0.341 N 
ATOM     17  H   LIG    1       25.354  29.253  65.150  0.00  0.00    +0.144 HD
ATOM     18  H   LIG    1       25.776  29.821  65.958  0.00  0.00    +0.144 HD
ENDBRANCH  11  16
ENDBRANCH   5   7
BRANCH   3  19
ATOM     19  O   LIG    1       22.939  32.881  61.601  0.00  0.00    -0.383 OA
ATOM     20  H   LIG    1       22.675  32.942  61.042  0.00  0.00    +0.210 HD
ENDBRANCH   3  19
BRANCH   2  21
ATOM     21  O   LIG    1       21.448  33.419  61.387  0.00  0.00    -0.386 OA
ATOM     22  H   LIG    1       20.898  33.445  61.102  0.00  0.00    +0.210 HD
ENDBRANCH   2  21
BRANCH   1  23
ATOM     23  C   LIG    1       19.955  32.513  62.684  0.00  0.00    +0.206 C 
BRANCH  23  24
ATOM     24  O   LIG    1       19.284  31.772  62.676  0.00  0.00    -0.284 OA
BRANCH  24  25
ATOM     25  P   LIG    1       18.375  31.926  62.288  0.00  0.00    +0.483 P 
ATOM     26  O   LIG    1       18.026  32.155  63.196  0.00  0.00    -0.227 OA
BRANCH  25  27
ATOM     27  O   LIG    1       18.723  31.697  61.379  0.00  0.00    -0.302 OA
ATOM     28  H   LIG    1       19.033  32.122  61.050  0.00  0.00    +0.222 HD
ENDBRANCH  25  27
BRANCH  25  29
ATOM     29  O   LIG    1       17.465  32.080  61.901  0.00  0.00    -0.186 OA
BRANCH  29  30
ATOM     30  P   LIG    1       16.885  31.301  61.664  0.00  0.00    +0.492 P 
ATOM     31  O   LIG    1       16.441  31.358  62.558  0.00  0.00    -0.226 OA
BRANCH  30  32
ATOM     32  O   LIG    1       17.328  31.242  60.770  0.00  0.00    -0.302 OA
ATOM     33  H   LIG    1       17.008  31.375  60.256  0.00  0.00    +0.222 HD
ENDBRANCH  30  32
BRANCH  30  34
ATOM     34  O   LIG    1       16.305  30.521  61.427  0.00  0.00    -0.186 OA
BRANCH  34  35
ATOM     35  P   LIG    1       15.409  30.674  61.008  0.00  0.00    +0.481 P 
ATOM     36  O   LIG    1       14.969  30.509  61.890  0.00  0.00    -0.227 OA
BRANCH  35  37
ATOM     37  O   LIG    1       15.851  30.838  60.125  0.00  0.00    -0.302 OA
ATOM     38  H   LIG    1       15.716  31.348  59.801  0.00  0.00    +0.222 HD
ENDBRANCH  35  37
BRANCH  35  39
ATOM     39  O   LIG    1       14.515  30.826  60.588  0.00  0.00    -0.302 OA
ATOM     40  H   LIG    1       14.369  31.384  60.362  0.00  0.00    +0.222 HD
ENDBRANCH  35  39
ENDBRANCH  34  35
ENDBRANCH  30  34
ENDBRANCH  29  30
ENDBRANCH  25  29
ENDBRANCH  24  25
ENDBRANCH  23  24
ENDBRANCH   1  23
TORSDOF 15
ENDMDL
MODEL 6
REMARK VINA RESULT:      -6.3      5.512      8.115
REMARK  Name = 25000921
REMARK                            x       y       z     vdW  Elec       q    Type
REMARK                         _______ _______ _______ _____ _____    ______ ____
ROOT
ATOM      1  C   LIG    1       21.548  30.813  63.339  0.00  0.00    +0.177 C 
ATOM      2  C   LIG    1       20.824  30.331  63.833  0.00  0.00    +0.180 C 
ATOM      3  C   LIG    1       20.061  30.965  63.958  0.00  0.00    +0.123 C 
ATOM      4  C   LIG    1       19.176  31.347  64.225  0.00  0.00    +0.047 C 
ATOM      5  C   LIG    1       20.312  31.838  63.541  0.00  0.00    +0.201 C 
ATOM      6  O   LIG    1       21.232  31.744  63.159  0.00  0.00    -0.359 OA
ENDROOT
BRANCH   5   7
ATOM      7  C   LIG    1       19.745  32.661  63.512  0.00  0.00    +0.075 A 
ATOM      8  C   LIG    1       18.930  32.789  62.957  0.00  0.00    +0.028 A 
ATOM      9  C   LIG    1       18.576  33.701  63.132  0.00  0.00    +0.033 A 
ATOM     10  C   LIG    1       19.172  34.140  63.796  0.00  0.00    +0.105 A 
ATOM     11  C   LIG    1       19.151  35.046  64.219  0.00  0.00    +0.144 A 
ATOM     12  N   LIG    1       19.857  35.305  64.879  0.00  0.00    -0.217 NA
ATOM     13  C   LIG    1       20.583  34.660  65.115  0.00  0.00    +0.245 A 
ATOM     14  N   LIG    1       20.603  33.754  64.691  0.00  0.00    -0.154 NA
ATOM     15  N   LIG    1       19.898  33.494  64.031  0.00  0.00    -0.229 N 
BRANCH  11  16
ATOM     16  N   LIG    1       18.425  35.692  63.983  0.00  0.00    -0.341 N 
ATOM     17  H   LIG    1       18.472  36.286  64.153  0.00  0.00    +0.144 HD
ATOM     18  H   LIG    1       17.928  35.498  63.668  0.00  0.00    +0.144 HD
ENDBRANCH  11  16
ENDBRANCH   5   7
BRANCH   3  19
ATOM     19  O   LIG    1       19.548  30.253  64.437  0.00  0.00    -0.383 OA
ATOM     20  H   LIG    1       19.200  29.852  64.116  0.00  0.00    +0.210 HD
ENDBRANCH   3  19
BRANCH   2  21
ATOM     21  O   LIG    1       20.857  29.382  64.147  0.00  0.00    -0.386 OA
ATOM     22  H   LIG    1       20.719  28.921  63.756  0.00  0.00    +0.210 HD
ENDBRANCH   2  21
BRANCH   1  23
ATOM     23  C   LIG    1       22.432  30.430  63.072  0.00  0.00    +0.206 C 
BRANCH  23  24
ATOM     24  O   LIG    1       23.278  30.854  63.397  0.00  0.00    -0.284 OA
BRANCH  24  25
ATOM     25  P   LIG    1       24.161  30.532  63.055  0.00  0.00    +0.483 P 
ATOM     26  O   LIG    1       24.077  29.707  63.613  0.00  0.00    -0.227 OA
BRANCH  25  27
ATOM     27  O   LIG    1       24.245  31.357  62.496  0.00  0.00    -0.302 OA
ATOM     28  H   LIG    1       24.791  31.651  62.457  0.00  0.00    +0.222 HD
ENDBRANCH  25  27
BRANCH  25  29
ATOM     29  O   LIG    1       25.044  30.210  62.712  0.00  0.00    -0.186 OA
BRANCH  29  30
ATOM     30  P   LIG    1       25.891  30.607  63.065  0.00  0.00    +0.492 P 
ATOM     31  O   LIG    1       26.005  31.122  62.216  0.00  0.00    -0.226 OA
BRANCH  30  32
ATOM     32  O   LIG    1       25.778  30.093  63.916  0.00  0.00    -0.302 OA
ATOM     33  H   LIG    1       25.692  29.479  63.898  0.00  0.00    +0.222 HD
ENDBRANCH  30  32
BRANCH  30  34
ATOM     34  O   LIG    1       26.738  31.004  63.419  0.00  0.00    -0.186 OA
BRANCH  34  35
ATOM     35  P   LIG    1       27.580  30.464  63.425  0.00  0.00    +0.481 P 
ATOM     36  O   LIG    1       27.505  30.357  64.416  0.00  0.00    -0.227 OA
BRANCH  35  37
ATOM     37  O   LIG    1       27.654  30.570  62.433  0.00  0.00    -0.302 OA
ATOM     38  H   LIG    1       28.156  30.363  62.135  0.00  0.00    +0.222 HD
ENDBRANCH  35  37
BRANCH  35  39
ATOM     39  O   LIG    1       28.421  29.923  63.429  0.00  0.00    -0.302 OA
ATOM     40  H   LIG    1       28.676  29.742  62.894  0.00  0.00    +0.222 HD
ENDBRANCH  35  39
ENDBRANCH  34  35
ENDBRANCH  30  34
ENDBRANCH  29  30
ENDBRANCH  25  29
ENDBRANCH  24  25
ENDBRANCH  23  24
ENDBRANCH   1  23
TORSDOF 15
ENDMDL
MODEL 7
REMARK VINA RESULT:      -6.2      5.065      7.810
REMARK  Name = 25000921
REMARK                            x       y       z     vdW  Elec       q    Type
REMARK                         _______ _______ _______ _____ _____    ______ ____
ROOT
ATOM      1  C   LIG    1       20.812  30.659  63.524  0.00  0.00    +0.177 C 
ATOM      2  C   LIG    1       20.306  29.811  63.684  0.00  0.00    +0.180 C 
ATOM      3  C   LIG    1       19.370  29.945  63.360  0.00  0.00    +0.123 C 
ATOM      4  C   LIG    1       18.408  29.784  63.137  0.00  0.00    +0.047 C 
ATOM      5  C   LIG    1       19.297  30.875  63.000  0.00  0.00    +0.201 C 
ATOM      6  O   LIG    1       20.189  31.316  63.102  0.00  0.00    -0.359 OA
ENDROOT
BRANCH   5   7
ATOM      7  C   LIG    1       18.477  31.292  62.608  0.00  0.00    +0.075 A 
ATOM      8  C   LIG    1       18.061  31.054  61.737  0.00  0.00    +0.028 A 
ATOM      9  C   LIG    1       17.262  31.630  61.608  0.00  0.00    +0.033 A 
ATOM     10  C   LIG    1       17.181  32.226  62.400  0.00  0.00    +0.105 A 
ATOM     11  C   LIG    1       16.518  32.935  62.640  0.00  0.00    +0.144 A 
ATOM     12  N   LIG    1       16.610  33.434  63.502  0.00  0.00    -0.217 NA
ATOM     13  C   LIG    1       17.365  33.224  64.123  0.00  0.00    +0.245 A 
ATOM     14  N   LIG    1       18.028  32.515  63.883  0.00  0.00    -0.154 NA
ATOM     15  N   LIG    1       17.936  32.016  63.021  0.00  0.00    -0.229 N 
BRANCH  11  16
ATOM     16  N   LIG    1       15.763  33.146  62.019  0.00  0.00    -0.341 N 
ATOM     17  H   LIG    1       15.236  32.820  62.050  0.00  0.00    +0.144 HD
ATOM     18  H   LIG    1       15.822  33.602  61.603  0.00  0.00    +0.144 HD
ENDBRANCH  11  16
ENDBRANCH   5   7
BRANCH   3  19
ATOM     19  O   LIG    1       19.141  29.011  63.633  0.00  0.00    -0.383 OA
ATOM     20  H   LIG    1       19.567  28.656  63.912  0.00  0.00    +0.210 HD
ENDBRANCH   3  19
BRANCH   2  21
ATOM     21  O   LIG    1       20.672  28.976  64.095  0.00  0.00    -0.386 OA
ATOM     22  H   LIG    1       21.258  28.807  63.984  0.00  0.00    +0.210 HD
ENDBRANCH   2  21
BRANCH   1  23
ATOM     23  C   LIG    1       21.774  30.819  63.748  0.00  0.00    +0.206 C 
BRANCH  23  24
ATOM     24  O   LIG    1       22.463  30.813  63.023  0.00  0.00    -0.284 OA
BRANCH  24  25
ATOM     25  P   LIG    1       23.403  31.086  63.226  0.00  0.00    +0.483 P 
ATOM     26  O   LIG    1       23.535  30.247  63.752  0.00  0.00    -0.227 OA
BRANCH  25  27
ATOM     27  O   LIG    1       23.272  31.927  62.699  0.00  0.00    -0.302 OA
ATOM     28  H   LIG    1       23.625  32.424  62.817  0.00  0.00    +0.222 HD
ENDBRANCH  25  27
BRANCH  25  29
ATOM     29  O   LIG    1       24.344  31.360  63.428  0.00  0.00    -0.186 OA
BRANCH  29  30
ATOM     30  P   LIG    1       25.054  31.259  62.731  0.00  0.00    +0.492 P 
ATOM     31  O   LIG    1       25.198  32.248  62.734  0.00  0.00    -0.226 OA
BRANCH  30  32
ATOM     32  O   LIG    1       24.911  30.270  62.728  0.00  0.00    -0.302 OA
ATOM     33  H   LIG    1       24.346  30.039  62.621  0.00  0.00    +0.222 HD
ENDBRANCH  30  32
BRANCH  30  34
ATOM     34  O   LIG    1       25.764  31.158  62.034  0.00  0.00    -0.186 OA
BRANCH  34  35
ATOM     35  P   LIG    1       26.713  30.995  62.307  0.00  0.00    +0.481 P 
ATOM     36  O   LIG    1       26.897  31.976  62.256  0.00  0.00    -0.227 OA
BRANCH  35  37
ATOM     37  O   LIG    1       26.528  30.013  62.358  0.00  0.00    -0.302 OA
ATOM     38  H   LIG    1       26.179  29.740  61.924  0.00  0.00    +0.222 HD
ENDBRANCH  35  37
BRANCH  35  39
ATOM     39  O   LIG    1       27.661  30.830  62.579  0.00  0.00    -0.302 OA
ATOM     40  H   LIG    1       28.122  31.126  62.290  0.00  0.00    +0.222 HD
ENDBRANCH  35  39
ENDBRANCH  34  35
ENDBRANCH  30  34
ENDBRANCH  29  30
ENDBRANCH  25  29
ENDBRANCH  24  25
ENDBRANCH  23  24
ENDBRANCH   1  23
TORSDOF 15
ENDMDL
MODEL 8
REMARK VINA RESULT:      -6.2      1.851      3.286
REMARK  Name = 25000921
REMARK                            x       y       z     vdW  Elec       q    Type
REMARK                         _______ _______ _______ _____ _____    ______ ____
ROOT
ATOM      1  C   LIG    1       20.866  31.875  63.182  0.00  0.00    +0.177 C 
ATOM      2  C   LIG    1       21.159  32.106  64.110  0.00  0.00    +0.180 C 
ATOM      3  C   LIG    1       22.047  31.675  64.269  0.00  0.00    +0.123 C 
ATOM      4  C   LIG    1       22.898  31.383  64.707  0.00  0.00    +0.047 C 
ATOM      5  C   LIG    1       22.303  31.178  63.440  0.00  0.00    +0.201 C 
ATOM      6  O   LIG    1       21.573  31.302  62.768  0.00  0.00    -0.359 OA
ENDROOT
BRANCH   5   7
ATOM      7  C   LIG    1       23.141  30.650  63.306  0.00  0.00    +0.075 A 
ATOM      8  C   LIG    1       23.269  29.691  63.533  0.00  0.00    +0.028 A 
ATOM      9  C   LIG    1       24.199  29.436  63.291  0.00  0.00    +0.033 A 
ATOM     10  C   LIG    1       24.649  30.238  62.913  0.00  0.00    +0.105 A 
ATOM     11  C   LIG    1       25.573  30.384  62.560  0.00  0.00    +0.144 A 
ATOM     12  N   LIG    1       25.840  31.285  62.216  0.00  0.00    -0.217 NA
ATOM     13  C   LIG    1       25.183  32.039  62.226  0.00  0.00    +0.245 A 
ATOM     14  N   LIG    1       24.259  31.892  62.579  0.00  0.00    -0.154 NA
ATOM     15  N   LIG    1       23.992  30.992  62.923  0.00  0.00    -0.229 N 
BRANCH  11  16
ATOM     16  N   LIG    1       26.230  29.631  62.550  0.00  0.00    -0.341 N 
ATOM     17  H   LIG    1       26.077  29.083  62.797  0.00  0.00    +0.144 HD
ATOM     18  H   LIG    1       26.790  29.711  62.297  0.00  0.00    +0.144 HD
ENDBRANCH  11  16
ENDBRANCH   5   7
BRANCH   3  19
ATOM     19  O   LIG    1       22.067  32.057  65.193  0.00  0.00    -0.383 OA
ATOM     20  H   LIG    1       22.011  31.683  65.685  0.00  0.00    +0.210 HD
ENDBRANCH   3  19
BRANCH   2  21
ATOM     21  O   LIG    1       20.653  32.669  64.764  0.00  0.00    -0.386 OA
ATOM     22  H   LIG    1       20.035  32.626  64.796  0.00  0.00    +0.210 HD
ENDBRANCH   2  21
BRANCH   1  23
ATOM     23  C   LIG    1       20.015  32.167  62.745  0.00  0.00    +0.206 C 
BRANCH  23  24
ATOM     24  O   LIG    1       19.220  31.561  62.746  0.00  0.00    -0.284 OA
BRANCH  24  25
ATOM     25  P   LIG    1       18.381  31.836  62.274  0.00  0.00    +0.483 P 
ATOM     26  O   LIG    1       18.002  32.163  63.139  0.00  0.00    -0.227 OA
BRANCH  25  27
ATOM     27  O   LIG    1       18.761  31.508  61.409  0.00  0.00    -0.302 OA
ATOM     28  H   LIG    1       18.792  30.899  61.295  0.00  0.00    +0.222 HD
ENDBRANCH  25  27
BRANCH  25  29
ATOM     29  O   LIG    1       17.543  32.111  61.803  0.00  0.00    -0.186 OA
BRANCH  29  30
ATOM     30  P   LIG    1       16.842  31.429  61.592  0.00  0.00    +0.492 P 
ATOM     31  O   LIG    1       16.363  31.658  62.439  0.00  0.00    -0.226 OA
BRANCH  30  32
ATOM     32  O   LIG    1       17.321  31.199  60.745  0.00  0.00    -0.302 OA
ATOM     33  H   LIG    1       17.584  30.642  60.679  0.00  0.00    +0.222 HD
ENDBRANCH  30  32
BRANCH  30  34
ATOM     34  O   LIG    1       16.142  30.747  61.381  0.00  0.00    -0.186 OA
BRANCH  34  35
ATOM     35  P   LIG    1       15.363  30.993  60.802  0.00  0.00    +0.481 P 
ATOM     36  O   LIG    1       14.803  31.135  61.617  0.00  0.00    -0.227 OA
BRANCH  35  37
ATOM     37  O   LIG    1       15.925  30.850  59.987  0.00  0.00    -0.302 OA
ATOM     38  H   LIG    1       15.697  30.982  59.426  0.00  0.00    +0.222 HD
ENDBRANCH  35  37
BRANCH  35  39
ATOM     39  O   LIG    1       14.586  31.238  60.224  0.00  0.00    -0.302 OA
ATOM     40  H   LIG    1       14.076  31.484  60.477  0.00  0.00    +0.222 HD
ENDBRANCH  35  39
ENDBRANCH  34  35
ENDBRANCH  30  34
ENDBRANCH  29  30
ENDBRANCH  25  29
ENDBRANCH  24  25
ENDBRANCH  23  24
ENDBRANCH   1  23
TORSDOF 15
ENDMDL
MODEL 9
REMARK VINA RESULT:      -6.2      6.082      8.800
REMARK  Name = 25000921
REMARK                            x       y       z     vdW  Elec       q    Type
REMARK                         _______ _______ _______ _____ _____    ______ ____
ROOT
ATOM      1  C   LIG    1       22.829  31.960  62.651  0.00  0.00    +0.177 C 
ATOM      2  C   LIG    1       22.459  32.608  61.984  0.00  0.00    +0.180 C 
ATOM      3  C   LIG    1       21.522  32.828  62.255  0.00  0.00    +0.123 C 
ATOM      4  C   LIG    1       20.604  33.226  62.269  0.00  0.00    +0.047 C 
ATOM      5  C   LIG    1       21.313  32.317  63.088  0.00  0.00    +0.201 C 
ATOM      6  O   LIG    1       22.121  31.780  63.333  0.00  0.00    -0.359 OA
ENDROOT
BRANCH   5   7
ATOM      7  C   LIG    1       20.448  32.337  63.590  0.00  0.00    +0.075 A 
ATOM      8  C   LIG    1       20.097  33.103  64.116  0.00  0.00    +0.028 A 
ATOM      9  C   LIG    1       19.220  32.838  64.503  0.00  0.00    +0.033 A 
ATOM     10  C   LIG    1       19.027  31.906  64.216  0.00  0.00    +0.105 A 
ATOM     11  C   LIG    1       18.256  31.295  64.396  0.00  0.00    +0.144 A 
ATOM     12  N   LIG    1       18.248  30.373  64.009  0.00  0.00    -0.217 NA
ATOM     13  C   LIG    1       19.011  30.062  63.442  0.00  0.00    +0.245 A 
ATOM     14  N   LIG    1       19.782  30.673  63.262  0.00  0.00    -0.154 NA
ATOM     15  N   LIG    1       19.790  31.594  63.649  0.00  0.00    -0.229 N 
BRANCH  11  16
ATOM     16  N   LIG    1       17.494  31.606  64.963  0.00  0.00    -0.341 N 
ATOM     17  H   LIG    1       17.472  32.194  65.158  0.00  0.00    +0.144 HD
ATOM     18  H   LIG    1       17.042  31.210  65.120  0.00  0.00    +0.144 HD
ENDBRANCH  11  16
ENDBRANCH   5   7
BRANCH   3  19
ATOM     19  O   LIG    1       21.437  33.438  61.467  0.00  0.00    -0.383 OA
ATOM     20  H   LIG    1       21.803  33.937  61.421  0.00  0.00    +0.210 HD
ENDBRANCH   3  19
BRANCH   2  21
ATOM     21  O   LIG    1       22.941  32.972  61.188  0.00  0.00    -0.386 OA
ATOM     22  H   LIG    1       22.715  33.466  60.887  0.00  0.00    +0.210 HD
ENDBRANCH   2  21
BRANCH   1  23
ATOM     23  C   LIG    1       23.747  31.563  62.636  0.00  0.00    +0.206 C 
BRANCH  23  24
ATOM     24  O   LIG    1       24.433  31.867  63.297  0.00  0.00    -0.284 OA
BRANCH  24  25
ATOM     25  P   LIG    1       25.352  31.472  63.281  0.00  0.00    +0.483 P 
ATOM     26  O   LIG    1       25.691  32.282  62.803  0.00  0.00    -0.227 OA
BRANCH  25  27
ATOM     27  O   LIG    1       25.013  30.661  63.758  0.00  0.00    -0.302 OA
ATOM     28  H   LIG    1       25.263  30.106  63.642  0.00  0.00    +0.222 HD
ENDBRANCH  25  27
BRANCH  25  29
ATOM     29  O   LIG    1       26.271  31.077  63.264  0.00  0.00    -0.186 OA
BRANCH  29  30
ATOM     30  P   LIG    1       26.796  30.999  64.111  0.00  0.00    +0.492 P 
ATOM     31  O   LIG    1       26.574  30.026  64.160  0.00  0.00    -0.226 OA
BRANCH  30  32
ATOM     32  O   LIG    1       27.019  31.973  64.063  0.00  0.00    -0.302 OA
ATOM     33  H   LIG    1       27.166  32.283  64.579  0.00  0.00    +0.222 HD
ENDBRANCH  30  32
BRANCH  30  34
ATOM     34  O   LIG    1       27.322  30.922  64.959  0.00  0.00    -0.186 OA
BRANCH  34  35
ATOM     35  P   LIG    1       28.280  30.638  64.928  0.00  0.00    +0.481 P 
ATOM     36  O   LIG    1       28.566  31.588  65.049  0.00  0.00    -0.227 OA
BRANCH  35  37
ATOM     37  O   LIG    1       27.994  29.687  64.808  0.00  0.00    -0.302 OA
ATOM     38  H   LIG    1       28.385  29.226  64.945  0.00  0.00    +0.222 HD
ENDBRANCH  35  37
BRANCH  35  39
ATOM     39  O   LIG    1       29.238  30.353  64.898  0.00  0.00    -0.302 OA
ATOM     40  H   LIG    1       29.687  30.779  64.857  0.00  0.00    +0.222 HD
ENDBRANCH  35  39
ENDBRANCH  34  35
ENDBRANCH  30  34
ENDBRANCH  29  30
ENDBRANCH  25  29
ENDBRANCH  24  25
ENDBRANCH  23  24
ENDBRANCH   1  23
TORSDOF 15
ENDMDL
