MODEL 1
REMARK VINA RESULT:     -10.4      0.000      0.000
REMARK  Name = 44470274
REMARK                            x       y       z     vdW  Elec       q    Type
REMARK                         _______ _______ _______ _____ _____    ______ ____
ROOT
ATOM      1  O   LIG    1       20.251  43.157  53.064  0.00  0.00    -0.356 OA
ATOM      2  C   LIG    1       20.001  43.466  52.147  0.00  0.00    +0.176 C 
ATOM      3  C   LIG    1       19.857  42.656  51.577  0.00  0.00    +0.180 C 
ATOM      4  C   LIG    1       20.018  41.847  52.142  0.00  0.00    +0.125 C 
ATOM      5  C   LIG    1       20.108  40.897  52.439  0.00  0.00    +0.047 C 
ATOM      6  C   LIG    1       20.262  42.157  53.062  0.00  0.00    +0.139 C 
ATOM      7  C   LIG    1       20.521  42.157  54.028  0.00  0.00    +0.051 C 
ENDROOT
BRANCH   6   8
ATOM      8  C   LIG    1       20.352  41.205  53.358  0.00  0.00    +0.078 A 
ATOM      9  C   LIG    1       21.098  40.590  53.126  0.00  0.00    +0.028 A 
ATOM     10  C   LIG    1       20.920  39.714  53.560  0.00  0.00    +0.033 A 
ATOM     11  C   LIG    1       20.064  39.783  54.060  0.00  0.00    +0.105 A 
ATOM     12  C   LIG    1       19.556  39.125  54.616  0.00  0.00    +0.144 A 
ATOM     13  N   LIG    1       18.694  39.394  55.046  0.00  0.00    -0.217 NA
ATOM     14  C   LIG    1       18.341  40.321  54.920  0.00  0.00    +0.245 A 
ATOM     15  N   LIG    1       18.849  40.979  54.365  0.00  0.00    -0.154 NA
ATOM     16  N   LIG    1       19.711  40.710  53.935  0.00  0.00    -0.229 N 
BRANCH  12  17
ATOM     17  N   LIG    1       19.909  38.198  54.741  0.00  0.00    -0.341 N 
ATOM     18  H   LIG    1       20.238  37.928  54.290  0.00  0.00    +0.144 HD
ATOM     19  H   LIG    1       19.800  37.893  55.270  0.00  0.00    +0.144 HD
ENDBRANCH  12  17
ENDBRANCH   6   8
BRANCH   4  20
ATOM     20  O   LIG    1       19.814  41.259  51.360  0.00  0.00    -0.383 OA
ATOM     21  H   LIG    1       19.302  41.355  51.024  0.00  0.00    +0.210 HD
ENDBRANCH   4  20
BRANCH   3  22
ATOM     22  O   LIG    1       19.598  42.655  50.611  0.00  0.00    -0.386 OA
ATOM     23  H   LIG    1       19.849  42.241  50.223  0.00  0.00    +0.210 HD
ENDBRANCH   3  22
BRANCH   2  24
ATOM     24  C   LIG    1       19.911  44.416  51.850  0.00  0.00    +0.190 C 
BRANCH  24  25
ATOM     25  O   LIG    1       19.088  44.935  52.081  0.00  0.00    -0.392 OA
ATOM     26  H   LIG    1       18.925  45.009  52.675  0.00  0.00    +0.210 HD
ENDBRANCH  24  25
ENDBRANCH   2  24
TORSDOF 6
ENDMDL
MODEL 2
REMARK VINA RESULT:      -9.6      1.242      2.265
REMARK  Name = 44470274
REMARK                            x       y       z     vdW  Elec       q    Type
REMARK                         _______ _______ _______ _____ _____    ______ ____
ROOT
ATOM      1  O   LIG    1       20.328  42.258  52.663  0.00  0.00    -0.356 OA
ATOM      2  C   LIG    1       20.789  43.056  53.049  0.00  0.00    +0.176 C 
ATOM      3  C   LIG    1       20.681  43.024  54.043  0.00  0.00    +0.180 C 
ATOM      4  C   LIG    1       20.153  42.206  54.271  0.00  0.00    +0.125 C 
ATOM      5  C   LIG    1       19.669  41.500  54.787  0.00  0.00    +0.047 C 
ATOM      6  C   LIG    1       19.935  41.732  53.418  0.00  0.00    +0.139 C 
ATOM      7  C   LIG    1       19.577  41.063  52.766  0.00  0.00    +0.051 C 
ENDROOT
BRANCH   6   8
ATOM      8  C   LIG    1       19.451  41.026  53.934  0.00  0.00    +0.078 A 
ATOM      9  C   LIG    1       18.597  41.147  54.430  0.00  0.00    +0.028 A 
ATOM     10  C   LIG    1       18.356  40.277  54.845  0.00  0.00    +0.033 A 
ATOM     11  C   LIG    1       19.058  39.615  54.608  0.00  0.00    +0.105 A 
ATOM     12  C   LIG    1       19.171  38.647  54.831  0.00  0.00    +0.144 A 
ATOM     13  N   LIG    1       19.965  38.144  54.489  0.00  0.00    -0.217 NA
ATOM     14  C   LIG    1       20.646  38.610  53.923  0.00  0.00    +0.245 A 
ATOM     15  N   LIG    1       20.532  39.578  53.699  0.00  0.00    -0.154 NA
ATOM     16  N   LIG    1       19.739  40.080  54.042  0.00  0.00    -0.229 N 
BRANCH  12  17
ATOM     17  N   LIG    1       18.491  38.181  55.397  0.00  0.00    -0.341 N 
ATOM     18  H   LIG    1       18.077  37.801  55.135  0.00  0.00    +0.144 HD
ATOM     19  H   LIG    1       18.483  38.273  56.010  0.00  0.00    +0.144 HD
ENDBRANCH  12  17
ENDBRANCH   6   8
BRANCH   4  20
ATOM     20  O   LIG    1       20.211  42.439  55.242  0.00  0.00    -0.383 OA
ATOM     21  H   LIG    1       20.460  42.979  55.417  0.00  0.00    +0.210 HD
ENDBRANCH   4  20
BRANCH   3  22
ATOM     22  O   LIG    1       21.038  43.693  54.695  0.00  0.00    -0.386 OA
ATOM     23  H   LIG    1       20.656  44.107  54.955  0.00  0.00    +0.210 HD
ENDBRANCH   3  22
BRANCH   2  24
ATOM     24  C   LIG    1       21.273  43.763  52.534  0.00  0.00    +0.190 C 
BRANCH  24  25
ATOM     25  O   LIG    1       20.829  44.204  51.753  0.00  0.00    -0.392 OA
ATOM     26  H   LIG    1       20.220  44.127  51.659  0.00  0.00    +0.210 HD
ENDBRANCH  24  25
ENDBRANCH   2  24
TORSDOF 6
ENDMDL
MODEL 3
REMARK VINA RESULT:      -9.1      2.256      4.257
REMARK  Name = 44470274
REMARK                            x       y       z     vdW  Elec       q    Type
REMARK                         _______ _______ _______ _____ _____    ______ ____
ROOT
ATOM      1  O   LIG    1       20.391  39.593  53.803  0.00  0.00    -0.356 OA
ATOM      2  C   LIG    1       19.675  39.244  54.406  0.00  0.00    +0.176 C 
ATOM      3  C   LIG    1       19.118  40.019  54.706  0.00  0.00    +0.180 C 
ATOM      4  C   LIG    1       19.490  40.848  54.287  0.00  0.00    +0.125 C 
ATOM      5  C   LIG    1       19.626  41.803  54.028  0.00  0.00    +0.047 C 
ATOM      6  C   LIG    1       20.277  40.584  53.729  0.00  0.00    +0.139 C 
ATOM      7  C   LIG    1       21.068  40.630  53.118  0.00  0.00    +0.051 C 
ENDROOT
BRANCH   6   8
ATOM      8  C   LIG    1       20.413  41.541  53.470  0.00  0.00    +0.078 A 
ATOM      9  C   LIG    1       20.822  42.247  54.038  0.00  0.00    +0.028 A 
ATOM     10  C   LIG    1       20.825  43.095  53.521  0.00  0.00    +0.033 A 
ATOM     11  C   LIG    1       20.419  42.917  52.632  0.00  0.00    +0.105 A 
ATOM     12  C   LIG    1       20.246  43.507  51.843  0.00  0.00    +0.144 A 
ATOM     13  N   LIG    1       19.817  43.130  51.022  0.00  0.00    -0.217 NA
ATOM     14  C   LIG    1       19.560  42.164  50.990  0.00  0.00    +0.245 A 
ATOM     15  N   LIG    1       19.733  41.575  51.779  0.00  0.00    -0.154 NA
ATOM     16  N   LIG    1       20.162  41.951  52.600  0.00  0.00    -0.229 N 
BRANCH  12  17
ATOM     17  N   LIG    1       20.502  44.473  51.874  0.00  0.00    -0.341 N 
ATOM     18  H   LIG    1       20.896  44.703  51.454  0.00  0.00    +0.144 HD
ATOM     19  H   LIG    1       20.268  44.842  52.314  0.00  0.00    +0.144 HD
ENDBRANCH  12  17
ENDBRANCH   6   8
BRANCH   4  20
ATOM     20  O   LIG    1       18.783  41.393  54.738  0.00  0.00    -0.383 OA
ATOM     21  H   LIG    1       18.185  41.281  54.623  0.00  0.00    +0.210 HD
ENDBRANCH   4  20
BRANCH   3  22
ATOM     22  O   LIG    1       18.328  39.974  55.317  0.00  0.00    -0.386 OA
ATOM     23  H   LIG    1       17.791  39.738  55.112  0.00  0.00    +0.210 HD
ENDBRANCH   3  22
BRANCH   2  24
ATOM     24  C   LIG    1       19.539  38.288  54.665  0.00  0.00    +0.190 C 
BRANCH  24  25
ATOM     25  O   LIG    1       18.996  37.684  54.081  0.00  0.00    -0.392 OA
ATOM     26  H   LIG    1       18.430  37.859  53.897  0.00  0.00    +0.210 HD
ENDBRANCH  24  25
ENDBRANCH   2  24
TORSDOF 6
ENDMDL
MODEL 4
REMARK VINA RESULT:      -8.5      2.436      4.144
REMARK  Name = 44470274
REMARK                            x       y       z     vdW  Elec       q    Type
REMARK                         _______ _______ _______ _____ _____    ______ ____
ROOT
ATOM      1  O   LIG    1       18.431  39.941  54.669  0.00  0.00    -0.356 OA
ATOM      2  C   LIG    1       18.697  38.998  54.867  0.00  0.00    +0.176 C 
ATOM      3  C   LIG    1       19.613  38.850  54.493  0.00  0.00    +0.180 C 
ATOM      4  C   LIG    1       19.913  39.702  54.063  0.00  0.00    +0.125 C 
ATOM      5  C   LIG    1       20.464  40.378  53.576  0.00  0.00    +0.047 C 
ATOM      6  C   LIG    1       19.182  40.376  54.172  0.00  0.00    +0.139 C 
ATOM      7  C   LIG    1       18.658  41.227  54.124  0.00  0.00    +0.051 C 
ENDROOT
BRANCH   6   8
ATOM      8  C   LIG    1       19.734  41.052  53.685  0.00  0.00    +0.078 A 
ATOM      9  C   LIG    1       19.948  41.041  52.713  0.00  0.00    +0.028 A 
ATOM     10  C   LIG    1       20.512  41.834  52.513  0.00  0.00    +0.033 A 
ATOM     11  C   LIG    1       20.649  42.339  53.358  0.00  0.00    +0.105 A 
ATOM     12  C   LIG    1       21.150  43.179  53.565  0.00  0.00    +0.144 A 
ATOM     13  N   LIG    1       21.168  43.533  54.500  0.00  0.00    -0.217 NA
ATOM     14  C   LIG    1       20.685  43.047  55.228  0.00  0.00    +0.245 A 
ATOM     15  N   LIG    1       20.184  42.207  55.021  0.00  0.00    -0.154 NA
ATOM     16  N   LIG    1       20.165  41.853  54.086  0.00  0.00    -0.229 N 
BRANCH  12  17
ATOM     17  N   LIG    1       21.633  43.665  52.837  0.00  0.00    -0.341 N 
ATOM     18  H   LIG    1       22.106  43.392  52.543  0.00  0.00    +0.144 HD
ATOM     19  H   LIG    1       21.460  44.239  52.679  0.00  0.00    +0.144 HD
ENDBRANCH  12  17
ENDBRANCH   6   8
BRANCH   4  20
ATOM     20  O   LIG    1       20.778  39.269  53.810  0.00  0.00    -0.383 OA
ATOM     21  H   LIG    1       20.785  38.682  53.612  0.00  0.00    +0.210 HD
ENDBRANCH   4  20
BRANCH   3  22
ATOM     22  O   LIG    1       20.137  38.000  54.540  0.00  0.00    -0.386 OA
ATOM     23  H   LIG    1       20.404  37.830  55.074  0.00  0.00    +0.210 HD
ENDBRANCH   3  22
BRANCH   2  24
ATOM     24  C   LIG    1       18.145  38.321  55.354  0.00  0.00    +0.190 C 
BRANCH  24  25
ATOM     25  O   LIG    1       17.161  38.261  55.181  0.00  0.00    -0.392 OA
ATOM     26  H   LIG    1       16.765  38.585  55.531  0.00  0.00    +0.210 HD
ENDBRANCH  24  25
ENDBRANCH   2  24
TORSDOF 6
ENDMDL
MODEL 5
REMARK VINA RESULT:      -7.1     13.978     15.762
REMARK  Name = 44470274
REMARK                            x       y       z     vdW  Elec       q    Type
REMARK                         _______ _______ _______ _____ _____    ______ ____
ROOT
ATOM      1  O   LIG    1       24.512  32.159  62.436  0.00  0.00    -0.356 OA
ATOM      2  C   LIG    1       23.598  31.768  62.543  0.00  0.00    +0.176 C 
ATOM      3  C   LIG    1       23.703  30.813  62.825  0.00  0.00    +0.180 C 
ATOM      4  C   LIG    1       24.681  30.615  62.891  0.00  0.00    +0.125 C 
ATOM      5  C   LIG    1       25.546  30.138  63.038  0.00  0.00    +0.047 C 
ATOM      6  C   LIG    1       25.181  31.447  62.650  0.00  0.00    +0.139 C 
ATOM      7  C   LIG    1       25.925  32.091  62.467  0.00  0.00    +0.051 C 
ENDROOT
BRANCH   6   8
ATOM      8  C   LIG    1       26.047  30.969  62.797  0.00  0.00    +0.078 A 
ATOM      9  C   LIG    1       26.456  30.300  62.185  0.00  0.00    +0.028 A 
ATOM     10  C   LIG    1       27.311  29.995  62.589  0.00  0.00    +0.033 A 
ATOM     11  C   LIG    1       27.434  30.473  63.451  0.00  0.00    +0.105 A 
ATOM     12  C   LIG    1       28.158  30.440  64.140  0.00  0.00    +0.144 A 
ATOM     13  N   LIG    1       28.097  31.012  64.958  0.00  0.00    -0.217 NA
ATOM     14  C   LIG    1       27.311  31.617  65.088  0.00  0.00    +0.245 A 
ATOM     15  N   LIG    1       26.587  31.650  64.399  0.00  0.00    -0.154 NA
ATOM     16  N   LIG    1       26.648  31.078  63.581  0.00  0.00    -0.229 N 
BRANCH  12  17
ATOM     17  N   LIG    1       28.944  29.835  64.011  0.00  0.00    -0.341 N 
ATOM     18  H   LIG    1       29.291  29.669  64.497  0.00  0.00    +0.144 HD
ATOM     19  H   LIG    1       29.084  29.626  63.444  0.00  0.00    +0.144 HD
ENDBRANCH  12  17
ENDBRANCH   6   8
BRANCH   4  20
ATOM     20  O   LIG    1       24.472  29.676  63.165  0.00  0.00    -0.383 OA
ATOM     21  H   LIG    1       23.978  29.560  63.520  0.00  0.00    +0.210 HD
ENDBRANCH   4  20
BRANCH   3  22
ATOM     22  O   LIG    1       22.960  30.170  63.008  0.00  0.00    -0.386 OA
ATOM     23  H   LIG    1       22.872  29.683  62.634  0.00  0.00    +0.210 HD
ENDBRANCH   3  22
BRANCH   2  24
ATOM     24  C   LIG    1       22.733  32.245  62.396  0.00  0.00    +0.190 C 
BRANCH  24  25
ATOM     25  O   LIG    1       22.613  32.824  61.589  0.00  0.00    -0.392 OA
ATOM     26  H   LIG    1       22.053  33.056  61.455  0.00  0.00    +0.210 HD
ENDBRANCH  24  25
ENDBRANCH   2  24
TORSDOF 6
ENDMDL
MODEL 6
REMARK VINA RESULT:      -6.7     13.457     15.296
REMARK  Name = 44470274
REMARK                            x       y       z     vdW  Elec       q    Type
REMARK                         _______ _______ _______ _____ _____    ______ ____
ROOT
ATOM      1  O   LIG    1       23.459  32.318  62.258  0.00  0.00    -0.356 OA
ATOM      2  C   LIG    1       22.471  32.224  62.383  0.00  0.00    +0.176 C 
ATOM      3  C   LIG    1       22.304  31.386  62.903  0.00  0.00    +0.180 C 
ATOM      4  C   LIG    1       23.188  30.963  63.101  0.00  0.00    +0.125 C 
ATOM      5  C   LIG    1       23.886  30.331  63.437  0.00  0.00    +0.047 C 
ATOM      6  C   LIG    1       23.902  31.539  62.702  0.00  0.00    +0.139 C 
ATOM      7  C   LIG    1       24.797  31.891  62.427  0.00  0.00    +0.051 C 
ENDROOT
BRANCH   6   8
ATOM      8  C   LIG    1       24.600  30.906  63.039  0.00  0.00    +0.078 A 
ATOM      9  C   LIG    1       24.825  30.022  62.643  0.00  0.00    +0.028 A 
ATOM     10  C   LIG    1       25.554  29.619  63.186  0.00  0.00    +0.033 A 
ATOM     11  C   LIG    1       25.781  30.252  63.918  0.00  0.00    +0.105 A 
ATOM     12  C   LIG    1       26.451  30.208  64.659  0.00  0.00    +0.144 A 
ATOM     13  N   LIG    1       26.527  30.965  65.309  0.00  0.00    -0.217 NA
ATOM     14  C   LIG    1       25.934  31.765  65.217  0.00  0.00    +0.245 A 
ATOM     15  N   LIG    1       25.265  31.808  64.476  0.00  0.00    -0.154 NA
ATOM     16  N   LIG    1       25.188  31.052  63.826  0.00  0.00    -0.229 N 
BRANCH  12  17
ATOM     17  N   LIG    1       27.044  29.408  64.751  0.00  0.00    -0.341 N 
ATOM     18  H   LIG    1       27.311  29.161  64.249  0.00  0.00    +0.144 HD
ATOM     19  H   LIG    1       27.145  29.160  65.310  0.00  0.00    +0.144 HD
ENDBRANCH  12  17
ENDBRANCH   6   8
BRANCH   4  20
ATOM     20  O   LIG    1       22.724  30.220  63.584  0.00  0.00    -0.383 OA
ATOM     21  H   LIG    1       22.107  30.224  63.639  0.00  0.00    +0.210 HD
ENDBRANCH   4  20
BRANCH   3  22
ATOM     22  O   LIG    1       21.409  31.034  63.179  0.00  0.00    -0.386 OA
ATOM     23  H   LIG    1       21.203  30.496  62.948  0.00  0.00    +0.210 HD
ENDBRANCH   3  22
BRANCH   2  24
ATOM     24  C   LIG    1       21.773  32.856  62.046  0.00  0.00    +0.190 C 
BRANCH  24  25
ATOM     25  O   LIG    1       21.842  33.229  61.121  0.00  0.00    -0.392 OA
ATOM     26  H   LIG    1       21.358  33.526  60.870  0.00  0.00    +0.210 HD
ENDBRANCH  24  25
ENDBRANCH   2  24
TORSDOF 6
ENDMDL
MODEL 7
REMARK VINA RESULT:      -6.6     12.395     13.443
REMARK  Name = 44470274
REMARK                            x       y       z     vdW  Elec       q    Type
REMARK                         _______ _______ _______ _____ _____    ______ ____
ROOT
ATOM      1  O   LIG    1       22.101  31.778  63.345  0.00  0.00    -0.356 OA
ATOM      2  C   LIG    1       22.832  31.969  62.690  0.00  0.00    +0.176 C 
ATOM      3  C   LIG    1       22.471  32.597  61.999  0.00  0.00    +0.180 C 
ATOM      4  C   LIG    1       21.518  32.793  62.227  0.00  0.00    +0.125 C 
ATOM      5  C   LIG    1       20.590  33.164  62.198  0.00  0.00    +0.047 C 
ATOM      6  C   LIG    1       21.289  32.287  63.059  0.00  0.00    +0.139 C 
ATOM      7  C   LIG    1       20.784  31.921  63.841  0.00  0.00    +0.051 C 
ENDROOT
BRANCH   6   8
ATOM      8  C   LIG    1       20.361  32.659  63.029  0.00  0.00    +0.078 A 
ATOM      9  C   LIG    1       19.624  32.342  62.440  0.00  0.00    +0.028 A 
ATOM     10  C   LIG    1       18.820  32.895  62.628  0.00  0.00    +0.033 A 
ATOM     11  C   LIG    1       19.056  33.554  63.333  0.00  0.00    +0.105 A 
ATOM     12  C   LIG    1       18.526  34.272  63.785  0.00  0.00    +0.144 A 
ATOM     13  N   LIG    1       18.953  34.843  64.486  0.00  0.00    -0.217 NA
ATOM     14  C   LIG    1       19.910  34.696  64.735  0.00  0.00    +0.245 A 
ATOM     15  N   LIG    1       20.440  33.978  64.283  0.00  0.00    -0.154 NA
ATOM     16  N   LIG    1       20.013  33.407  63.582  0.00  0.00    -0.229 N 
BRANCH  12  17
ATOM     17  N   LIG    1       17.569  34.419  63.535  0.00  0.00    -0.341 N 
ATOM     18  H   LIG    1       17.298  34.053  63.114  0.00  0.00    +0.144 HD
ATOM     19  H   LIG    1       17.246  34.877  63.802  0.00  0.00    +0.144 HD
ENDBRANCH  12  17
ENDBRANCH   6   8
BRANCH   4  20
ATOM     20  O   LIG    1       21.449  33.389  61.427  0.00  0.00    -0.383 OA
ATOM     21  H   LIG    1       21.922  33.429  61.029  0.00  0.00    +0.210 HD
ENDBRANCH   4  20
BRANCH   3  22
ATOM     22  O   LIG    1       22.976  32.963  61.217  0.00  0.00    -0.386 OA
ATOM     23  H   LIG    1       23.438  33.367  61.308  0.00  0.00    +0.210 HD
ENDBRANCH   3  22
BRANCH   2  24
ATOM     24  C   LIG    1       23.760  31.599  62.719  0.00  0.00    +0.190 C 
BRANCH  24  25
ATOM     25  O   LIG    1       23.903  30.609  62.713  0.00  0.00    -0.392 OA
ATOM     26  H   LIG    1       24.479  30.379  62.694  0.00  0.00    +0.210 HD
ENDBRANCH  24  25
ENDBRANCH   2  24
TORSDOF 6
ENDMDL
