MODEL 1
REMARK VINA RESULT:      -9.6      0.000      0.000
REMARK  Name = 44468762
REMARK                            x       y       z     vdW  Elec       q    Type
REMARK                         _______ _______ _______ _____ _____    ______ ____
ROOT
ATOM      1  O   LIG    1       20.288  43.203  52.961  0.00  0.00    -0.354 OA
ATOM      2  C   LIG    1       19.993  43.497  52.052  0.00  0.00    +0.176 C 
ATOM      3  C   LIG    1       19.810  42.679  51.507  0.00  0.00    +0.177 C 
ATOM      4  C   LIG    1       19.991  41.879  52.079  0.00  0.00    +0.185 C 
ATOM      5  C   LIG    1       20.287  42.203  52.978  0.00  0.00    +0.162 C 
ENDROOT
BRANCH   5   6
ATOM      6  C   LIG    1       20.382  41.256  53.287  0.00  0.00    +0.080 A 
ATOM      7  C   LIG    1       21.128  40.640  53.059  0.00  0.00    +0.028 A 
ATOM      8  C   LIG    1       20.956  39.769  53.506  0.00  0.00    +0.033 A 
ATOM      9  C   LIG    1       20.105  39.844  54.012  0.00  0.00    +0.105 A 
ATOM     10  C   LIG    1       19.602  39.193  54.581  0.00  0.00    +0.144 A 
ATOM     11  N   LIG    1       18.743  39.466  55.014  0.00  0.00    -0.217 NA
ATOM     12  C   LIG    1       18.386  40.390  54.878  0.00  0.00    +0.245 A 
ATOM     13  N   LIG    1       18.889  41.041  54.309  0.00  0.00    -0.154 NA
ATOM     14  N   LIG    1       19.748  40.768  53.876  0.00  0.00    -0.229 N 
BRANCH  10  15
ATOM     15  N   LIG    1       19.959  38.269  54.718  0.00  0.00    -0.341 N 
ATOM     16  H   LIG    1       19.584  37.779  54.657  0.00  0.00    +0.144 HD
ATOM     17  H   LIG    1       20.556  38.185  54.863  0.00  0.00    +0.144 HD
ENDBRANCH  10  15
ENDBRANCH   5   6
BRANCH   4  18
ATOM     18  O   LIG    1       19.895  40.923  51.801  0.00  0.00    -0.386 OA
ATOM     19  H   LIG    1       20.028  40.754  51.219  0.00  0.00    +0.210 HD
ENDBRANCH   4  18
BRANCH   3  20
ATOM     20  O   LIG    1       19.499  42.663  50.557  0.00  0.00    -0.386 OA
ATOM     21  H   LIG    1       18.904  42.545  50.427  0.00  0.00    +0.210 HD
ENDBRANCH   3  20
BRANCH   2  22
ATOM     22  C   LIG    1       19.898  44.443  51.743  0.00  0.00    +0.190 C 
BRANCH  22  23
ATOM     23  O   LIG    1       19.123  44.994  52.052  0.00  0.00    -0.392 OA
ATOM     24  H   LIG    1       19.206  45.425  52.491  0.00  0.00    +0.210 HD
ENDBRANCH  22  23
ENDBRANCH   2  22
BRANCH   5  25
ATOM     25  C   LIG    1       20.598  42.218  53.929  0.00  0.00    +0.200 C 
BRANCH  25  26
ATOM     26  O   LIG    1       20.995  43.053  54.311  0.00  0.00    -0.392 OA
ATOM     27  H   LIG    1       21.058  43.112  54.925  0.00  0.00    +0.210 HD
ENDBRANCH  25  26
ENDBRANCH   5  25
TORSDOF 8
ENDMDL
MODEL 2
REMARK VINA RESULT:      -8.9      1.217      2.333
REMARK  Name = 44468762
REMARK                            x       y       z     vdW  Elec       q    Type
REMARK                         _______ _______ _______ _____ _____    ______ ____
ROOT
ATOM      1  O   LIG    1       20.336  42.311  52.709  0.00  0.00    -0.354 OA
ATOM      2  C   LIG    1       20.830  43.075  53.123  0.00  0.00    +0.176 C 
ATOM      3  C   LIG    1       20.746  42.994  54.117  0.00  0.00    +0.177 C 
ATOM      4  C   LIG    1       20.199  42.181  54.316  0.00  0.00    +0.185 C 
ATOM      5  C   LIG    1       19.947  41.759  53.445  0.00  0.00    +0.162 C 
ENDROOT
BRANCH   5   6
ATOM      6  C   LIG    1       19.454  41.040  53.938  0.00  0.00    +0.080 A 
ATOM      7  C   LIG    1       18.582  41.145  54.405  0.00  0.00    +0.028 A 
ATOM      8  C   LIG    1       18.338  40.267  54.802  0.00  0.00    +0.033 A 
ATOM      9  C   LIG    1       19.057  39.617  54.583  0.00  0.00    +0.105 A 
ATOM     10  C   LIG    1       19.176  38.648  54.800  0.00  0.00    +0.144 A 
ATOM     11  N   LIG    1       19.987  38.160  54.480  0.00  0.00    -0.217 NA
ATOM     12  C   LIG    1       20.681  38.640  53.943  0.00  0.00    +0.245 A 
ATOM     13  N   LIG    1       20.562  39.609  53.726  0.00  0.00    -0.154 NA
ATOM     14  N   LIG    1       19.751  40.098  54.045  0.00  0.00    -0.229 N 
BRANCH  10  15
ATOM     15  N   LIG    1       18.482  38.168  55.337  0.00  0.00    -0.341 N 
ATOM     16  H   LIG    1       18.555  38.102  55.949  0.00  0.00    +0.144 HD
ATOM     17  H   LIG    1       17.979  37.937  55.058  0.00  0.00    +0.144 HD
ENDBRANCH  10  15
ENDBRANCH   5   6
BRANCH   4  18
ATOM     18  O   LIG    1       19.950  41.849  55.225  0.00  0.00    -0.386 OA
ATOM     19  H   LIG    1       19.538  42.161  55.568  0.00  0.00    +0.210 HD
ENDBRANCH   4  18
BRANCH   3  20
ATOM     20  O   LIG    1       21.138  43.618  54.792  0.00  0.00    -0.386 OA
ATOM     21  H   LIG    1       21.332  43.400  55.340  0.00  0.00    +0.210 HD
ENDBRANCH   3  20
BRANCH   2  22
ATOM     22  C   LIG    1       21.322  43.793  52.632  0.00  0.00    +0.190 C 
BRANCH  22  23
ATOM     23  O   LIG    1       20.953  44.155  51.775  0.00  0.00    -0.392 OA
ATOM     24  H   LIG    1       20.876  43.779  51.288  0.00  0.00    +0.210 HD
ENDBRANCH  22  23
ENDBRANCH   2  22
BRANCH   5  25
ATOM     25  C   LIG    1       19.553  41.134  52.770  0.00  0.00    +0.200 C 
BRANCH  25  26
ATOM     26  O   LIG    1       19.508  41.404  51.808  0.00  0.00    -0.392 OA
ATOM     27  H   LIG    1       19.204  41.048  51.401  0.00  0.00    +0.210 HD
ENDBRANCH  25  26
ENDBRANCH   5  25
TORSDOF 8
ENDMDL
MODEL 3
REMARK VINA RESULT:      -8.6      2.171      4.276
REMARK  Name = 44468762
REMARK                            x       y       z     vdW  Elec       q    Type
REMARK                         _______ _______ _______ _____ _____    ______ ____
ROOT
ATOM      1  O   LIG    1       20.410  39.796  53.863  0.00  0.00    -0.354 OA
ATOM      2  C   LIG    1       19.639  39.408  54.368  0.00  0.00    +0.176 C 
ATOM      3  C   LIG    1       18.988  40.145  54.551  0.00  0.00    +0.177 C 
ATOM      4  C   LIG    1       19.356  40.988  54.159  0.00  0.00    +0.185 C 
ATOM      5  C   LIG    1       20.235  40.772  53.734  0.00  0.00    +0.162 C 
ENDROOT
BRANCH   5   6
ATOM      6  C   LIG    1       20.337  41.729  53.461  0.00  0.00    +0.080 A 
ATOM      7  C   LIG    1       20.671  42.469  54.036  0.00  0.00    +0.028 A 
ATOM      8  C   LIG    1       20.663  43.304  53.498  0.00  0.00    +0.033 A 
ATOM      9  C   LIG    1       20.324  43.086  52.590  0.00  0.00    +0.105 A 
ATOM     10  C   LIG    1       20.172  43.648  51.777  0.00  0.00    +0.144 A 
ATOM     11  N   LIG    1       19.817  43.231  50.941  0.00  0.00    -0.217 NA
ATOM     12  C   LIG    1       19.614  42.252  50.917  0.00  0.00    +0.245 A 
ATOM     13  N   LIG    1       19.766  41.690  51.730  0.00  0.00    -0.154 NA
ATOM     14  N   LIG    1       20.121  42.107  52.567  0.00  0.00    -0.229 N 
BRANCH  10  15
ATOM     15  N   LIG    1       20.374  44.627  51.801  0.00  0.00    -0.341 N 
ATOM     16  H   LIG    1       20.843  44.855  51.464  0.00  0.00    +0.144 HD
ATOM     17  H   LIG    1       20.032  45.006  52.152  0.00  0.00    +0.144 HD
ENDBRANCH  10  15
ENDBRANCH   5   6
BRANCH   4  18
ATOM     18  O   LIG    1       18.921  41.888  54.188  0.00  0.00    -0.386 OA
ATOM     19  H   LIG    1       18.401  41.992  53.867  0.00  0.00    +0.210 HD
ENDBRANCH   4  18
BRANCH   3  20
ATOM     20  O   LIG    1       18.120  40.055  55.040  0.00  0.00    -0.386 OA
ATOM     21  H   LIG    1       17.697  40.508  55.008  0.00  0.00    +0.210 HD
ENDBRANCH   3  20
BRANCH   2  22
ATOM     22  C   LIG    1       19.537  38.453  54.642  0.00  0.00    +0.190 C 
BRANCH  22  23
ATOM     23  O   LIG    1       20.344  37.867  54.721  0.00  0.00    -0.392 OA
ATOM     24  H   LIG    1       20.770  37.865  54.270  0.00  0.00    +0.210 HD
ENDBRANCH  22  23
ENDBRANCH   2  22
BRANCH   5  25
ATOM     25  C   LIG    1       21.103  40.864  53.245  0.00  0.00    +0.200 C 
BRANCH  25  26
ATOM     26  O   LIG    1       21.690  40.064  53.117  0.00  0.00    -0.392 OA
ATOM     27  H   LIG    1       22.247  40.129  52.851  0.00  0.00    +0.210 HD
ENDBRANCH  25  26
ENDBRANCH   5  25
TORSDOF 8
ENDMDL
MODEL 4
REMARK VINA RESULT:      -7.5      2.237      4.079
REMARK  Name = 44468762
REMARK                            x       y       z     vdW  Elec       q    Type
REMARK                         _______ _______ _______ _____ _____    ______ ____
ROOT
ATOM      1  O   LIG    1       19.409  40.190  54.483  0.00  0.00    -0.354 OA
ATOM      2  C   LIG    1       19.535  39.248  54.173  0.00  0.00    +0.176 C 
ATOM      3  C   LIG    1       20.242  39.247  53.465  0.00  0.00    +0.177 C 
ATOM      4  C   LIG    1       20.553  40.189  53.338  0.00  0.00    +0.185 C 
ATOM      5  C   LIG    1       20.038  40.771  53.967  0.00  0.00    +0.162 C 
ENDROOT
BRANCH   5   6
ATOM      6  C   LIG    1       20.533  41.573  53.629  0.00  0.00    +0.080 A 
ATOM      7  C   LIG    1       21.397  41.917  53.980  0.00  0.00    +0.028 A 
ATOM      8  C   LIG    1       21.646  42.721  53.452  0.00  0.00    +0.033 A 
ATOM      9  C   LIG    1       20.938  42.877  52.773  0.00  0.00    +0.105 A 
ATOM     10  C   LIG    1       20.828  43.576  52.066  0.00  0.00    +0.144 A 
ATOM     11  N   LIG    1       20.027  43.560  51.468  0.00  0.00    -0.217 NA
ATOM     12  C   LIG    1       19.335  42.847  51.578  0.00  0.00    +0.245 A 
ATOM     13  N   LIG    1       19.444  42.148  52.285  0.00  0.00    -0.154 NA
ATOM     14  N   LIG    1       20.246  42.164  52.882  0.00  0.00    -0.229 N 
BRANCH  10  15
ATOM     15  N   LIG    1       21.520  44.289  51.956  0.00  0.00    -0.341 N 
ATOM     16  H   LIG    1       21.960  44.230  51.523  0.00  0.00    +0.144 HD
ATOM     17  H   LIG    1       21.509  44.790  52.321  0.00  0.00    +0.144 HD
ENDBRANCH  10  15
ENDBRANCH   5   6
BRANCH   4  18
ATOM     18  O   LIG    1       21.255  40.494  52.695  0.00  0.00    -0.386 OA
ATOM     19  H   LIG    1       21.133  40.511  52.087  0.00  0.00    +0.210 HD
ENDBRANCH   4  18
BRANCH   3  20
ATOM     20  O   LIG    1       20.579  38.445  52.972  0.00  0.00    -0.386 OA
ATOM     21  H   LIG    1       20.539  38.423  52.353  0.00  0.00    +0.210 HD
ENDBRANCH   3  20
BRANCH   2  22
ATOM     22  C   LIG    1       19.041  38.447  54.511  0.00  0.00    +0.190 C 
BRANCH  22  23
ATOM     23  O   LIG    1       18.830  38.365  55.485  0.00  0.00    -0.392 OA
ATOM     24  H   LIG    1       18.246  38.430  55.682  0.00  0.00    +0.210 HD
ENDBRANCH  22  23
ENDBRANCH   2  22
BRANCH   5  25
ATOM     25  C   LIG    1       19.702  41.574  54.460  0.00  0.00    +0.200 C 
BRANCH  25  26
ATOM     26  O   LIG    1       19.058  41.461  55.218  0.00  0.00    -0.392 OA
ATOM     27  H   LIG    1       19.199  41.683  55.779  0.00  0.00    +0.210 HD
ENDBRANCH  25  26
ENDBRANCH   5  25
TORSDOF 8
ENDMDL
MODEL 5
REMARK VINA RESULT:      -6.2     12.323     13.676
REMARK  Name = 44468762
REMARK                            x       y       z     vdW  Elec       q    Type
REMARK                         _______ _______ _______ _____ _____    ______ ____
ROOT
ATOM      1  O   LIG    1       22.017  32.369  62.239  0.00  0.00    -0.354 OA
ATOM      2  C   LIG    1       22.574  31.803  62.846  0.00  0.00    +0.176 C 
ATOM      3  C   LIG    1       22.092  31.720  63.719  0.00  0.00    +0.177 C 
ATOM      4  C   LIG    1       21.237  32.234  63.650  0.00  0.00    +0.185 C 
ATOM      5  C   LIG    1       21.191  32.635  62.735  0.00  0.00    +0.162 C 
ENDROOT
BRANCH   5   6
ATOM      6  C   LIG    1       20.307  33.046  62.960  0.00  0.00    +0.080 A 
ATOM      7  C   LIG    1       20.167  33.881  63.482  0.00  0.00    +0.028 A 
ATOM      8  C   LIG    1       19.189  34.043  63.547  0.00  0.00    +0.033 A 
ATOM      9  C   LIG    1       18.720  33.310  63.066  0.00  0.00    +0.105 A 
ATOM     10  C   LIG    1       17.751  33.122  62.910  0.00  0.00    +0.144 A 
ATOM     11  N   LIG    1       17.476  32.313  62.390  0.00  0.00    -0.217 NA
ATOM     12  C   LIG    1       18.171  31.693  62.025  0.00  0.00    +0.245 A 
ATOM     13  N   LIG    1       19.140  31.882  62.181  0.00  0.00    -0.154 NA
ATOM     14  N   LIG    1       19.415  32.690  62.702  0.00  0.00    -0.229 N 
BRANCH  10  15
ATOM     15  N   LIG    1       17.056  33.742  63.275  0.00  0.00    -0.341 N 
ATOM     16  H   LIG    1       16.888  34.244  62.952  0.00  0.00    +0.144 HD
ATOM     17  H   LIG    1       16.792  33.624  63.824  0.00  0.00    +0.144 HD
ENDBRANCH  10  15
ENDBRANCH   5   6
BRANCH   4  18
ATOM     18  O   LIG    1       20.550  32.331  64.370  0.00  0.00    -0.386 OA
ATOM     19  H   LIG    1       19.947  32.315  64.228  0.00  0.00    +0.210 HD
ENDBRANCH   4  18
BRANCH   3  20
ATOM     20  O   LIG    1       22.409  31.212  64.520  0.00  0.00    -0.386 OA
ATOM     21  H   LIG    1       22.798  30.734  64.449  0.00  0.00    +0.210 HD
ENDBRANCH   3  20
BRANCH   2  22
ATOM     22  C   LIG    1       23.457  31.393  62.622  0.00  0.00    +0.190 C 
BRANCH  22  23
ATOM     23  O   LIG    1       24.189  31.959  62.240  0.00  0.00    -0.392 OA
ATOM     24  H   LIG    1       24.677  32.111  62.591  0.00  0.00    +0.210 HD
ENDBRANCH  22  23
ENDBRANCH   2  22
BRANCH   5  25
ATOM     25  C   LIG    1       20.873  33.143  61.934  0.00  0.00    +0.200 C 
BRANCH  25  26
ATOM     26  O   LIG    1       21.490  33.294  61.162  0.00  0.00    -0.392 OA
ATOM     27  H   LIG    1       21.258  33.443  60.606  0.00  0.00    +0.210 HD
ENDBRANCH  25  26
ENDBRANCH   5  25
TORSDOF 8
ENDMDL
MODEL 6
REMARK VINA RESULT:      -6.2     14.192     16.017
REMARK  Name = 44468762
REMARK                            x       y       z     vdW  Elec       q    Type
REMARK                         _______ _______ _______ _____ _____    ______ ____
ROOT
ATOM      1  O   LIG    1       25.011  32.118  62.601  0.00  0.00    -0.354 OA
ATOM      2  C   LIG    1       24.109  31.688  62.596  0.00  0.00    +0.176 C 
ATOM      3  C   LIG    1       24.229  30.715  62.795  0.00  0.00    +0.177 C 
ATOM      4  C   LIG    1       25.206  30.544  62.923  0.00  0.00    +0.185 C 
ATOM      5  C   LIG    1       25.689  31.411  62.803  0.00  0.00    +0.162 C 
ENDROOT
BRANCH   5   6
ATOM      6  C   LIG    1       26.560  30.949  62.976  0.00  0.00    +0.080 A 
ATOM      7  C   LIG    1       27.084  30.425  62.313  0.00  0.00    +0.028 A 
ATOM      8  C   LIG    1       27.901  30.085  62.767  0.00  0.00    +0.033 A 
ATOM      9  C   LIG    1       27.885  30.398  63.710  0.00  0.00    +0.105 A 
ATOM     10  C   LIG    1       28.519  30.266  64.472  0.00  0.00    +0.144 A 
ATOM     11  N   LIG    1       28.319  30.671  65.364  0.00  0.00    -0.217 NA
ATOM     12  C   LIG    1       27.486  31.208  65.494  0.00  0.00    +0.245 A 
ATOM     13  N   LIG    1       26.852  31.340  64.732  0.00  0.00    -0.154 NA
ATOM     14  N   LIG    1       27.051  30.935  63.840  0.00  0.00    -0.229 N 
BRANCH  10  15
ATOM     15  N   LIG    1       29.352  29.729  64.341  0.00  0.00    -0.341 N 
ATOM     16  H   LIG    1       29.820  29.959  64.007  0.00  0.00    +0.144 HD
ATOM     17  H   LIG    1       29.400  29.165  64.595  0.00  0.00    +0.144 HD
ENDBRANCH  10  15
ENDBRANCH   5   6
BRANCH   4  18
ATOM     18  O   LIG    1       25.626  29.661  63.133  0.00  0.00    -0.386 OA
ATOM     19  H   LIG    1       25.785  29.276  62.674  0.00  0.00    +0.210 HD
ENDBRANCH   4  18
BRANCH   3  20
ATOM     20  O   LIG    1       23.501  30.033  62.856  0.00  0.00    -0.386 OA
ATOM     21  H   LIG    1       22.912  30.214  62.930  0.00  0.00    +0.210 HD
ENDBRANCH   3  20
BRANCH   2  22
ATOM     22  C   LIG    1       23.239  32.149  62.423  0.00  0.00    +0.190 C 
BRANCH  22  23
ATOM     23  O   LIG    1       23.162  32.804  61.672  0.00  0.00    -0.392 OA
ATOM     24  H   LIG    1       23.029  32.605  61.099  0.00  0.00    +0.210 HD
ENDBRANCH  22  23
ENDBRANCH   2  22
BRANCH   5  25
ATOM     25  C   LIG    1       26.419  32.093  62.742  0.00  0.00    +0.200 C 
BRANCH  25  26
ATOM     26  O   LIG    1       26.190  33.058  62.615  0.00  0.00    -0.392 OA
ATOM     27  H   LIG    1       26.638  33.487  62.635  0.00  0.00    +0.210 HD
ENDBRANCH  25  26
ENDBRANCH   5  25
TORSDOF 8
ENDMDL
MODEL 7
REMARK VINA RESULT:      -6.2     12.339     13.687
REMARK  Name = 44468762
REMARK                            x       y       z     vdW  Elec       q    Type
REMARK                         _______ _______ _______ _____ _____    ______ ____
ROOT
ATOM      1  O   LIG    1       22.035  32.373  62.266  0.00  0.00    -0.354 OA
ATOM      2  C   LIG    1       22.528  31.666  62.772  0.00  0.00    +0.176 C 
ATOM      3  C   LIG    1       21.880  31.218  63.388  0.00  0.00    +0.177 C 
ATOM      4  C   LIG    1       20.986  31.648  63.264  0.00  0.00    +0.185 C 
ATOM      5  C   LIG    1       21.082  32.363  62.570  0.00  0.00    +0.162 C 
ENDROOT
BRANCH   5   6
ATOM      6  C   LIG    1       20.111  32.583  62.664  0.00  0.00    +0.080 A 
ATOM      7  C   LIG    1       19.357  32.093  62.240  0.00  0.00    +0.028 A 
ATOM      8  C   LIG    1       18.510  32.536  62.511  0.00  0.00    +0.033 A 
ATOM      9  C   LIG    1       18.736  33.301  63.103  0.00  0.00    +0.105 A 
ATOM     10  C   LIG    1       18.169  33.979  63.570  0.00  0.00    +0.144 A 
ATOM     11  N   LIG    1       18.596  34.686  64.134  0.00  0.00    -0.217 NA
ATOM     12  C   LIG    1       19.591  34.716  64.229  0.00  0.00    +0.245 A 
ATOM     13  N   LIG    1       20.159  34.038  63.761  0.00  0.00    -0.154 NA
ATOM     14  N   LIG    1       19.731  33.331  63.198  0.00  0.00    -0.229 N 
BRANCH  10  15
ATOM     15  N   LIG    1       17.174  33.950  63.475  0.00  0.00    -0.341 N 
ATOM     16  H   LIG    1       16.908  33.509  63.129  0.00  0.00    +0.144 HD
ATOM     17  H   LIG    1       16.822  34.372  63.762  0.00  0.00    +0.144 HD
ENDBRANCH  10  15
ENDBRANCH   5   6
BRANCH   4  18
ATOM     18  O   LIG    1       20.145  31.407  63.747  0.00  0.00    -0.386 OA
ATOM     19  H   LIG    1       19.810  31.848  64.026  0.00  0.00    +0.210 HD
ENDBRANCH   4  18
BRANCH   3  20
ATOM     20  O   LIG    1       22.089  30.470  64.018  0.00  0.00    -0.386 OA
ATOM     21  H   LIG    1       22.442  29.996  63.831  0.00  0.00    +0.210 HD
ENDBRANCH   3  20
BRANCH   2  22
ATOM     22  C   LIG    1       23.499  31.445  62.678  0.00  0.00    +0.190 C 
BRANCH  22  23
ATOM     23  O   LIG    1       24.116  32.089  62.226  0.00  0.00    -0.392 OA
ATOM     24  H   LIG    1       23.972  32.315  61.666  0.00  0.00    +0.210 HD
ENDBRANCH  22  23
ENDBRANCH   2  22
BRANCH   5  25
ATOM     25  C   LIG    1       20.872  33.110  61.939  0.00  0.00    +0.200 C 
BRANCH  25  26
ATOM     26  O   LIG    1       21.494  33.315  61.184  0.00  0.00    -0.392 OA
ATOM     27  H   LIG    1       21.281  33.601  60.676  0.00  0.00    +0.210 HD
ENDBRANCH  25  26
ENDBRANCH   5  25
TORSDOF 8
ENDMDL
MODEL 8
REMARK VINA RESULT:      -6.1     14.748     16.584
REMARK  Name = 44468762
REMARK                            x       y       z     vdW  Elec       q    Type
REMARK                         _______ _______ _______ _____ _____    ______ ____
ROOT
ATOM      1  O   LIG    1       27.647  29.970  63.517  0.00  0.00    -0.354 OA
ATOM      2  C   LIG    1       28.265  30.410  64.169  0.00  0.00    +0.176 C 
ATOM      3  C   LIG    1       27.844  31.268  64.463  0.00  0.00    +0.177 C 
ATOM      4  C   LIG    1       26.965  31.359  63.994  0.00  0.00    +0.185 C 
ATOM      5  C   LIG    1       26.844  30.557  63.409  0.00  0.00    +0.162 C 
ENDROOT
BRANCH   5   6
ATOM      6  C   LIG    1       25.960  30.913  63.105  0.00  0.00    +0.080 A 
ATOM      7  C   LIG    1       25.819  31.613  62.412  0.00  0.00    +0.028 A 
ATOM      8  C   LIG    1       24.841  31.764  62.321  0.00  0.00    +0.033 A 
ATOM      9  C   LIG    1       24.374  31.159  62.955  0.00  0.00    +0.105 A 
ATOM     10  C   LIG    1       23.405  31.016  63.157  0.00  0.00    +0.144 A 
ATOM     11  N   LIG    1       23.131  30.345  63.846  0.00  0.00    -0.217 NA
ATOM     12  C   LIG    1       23.826  29.817  64.333  0.00  0.00    +0.245 A 
ATOM     13  N   LIG    1       24.795  29.959  64.132  0.00  0.00    -0.154 NA
ATOM     14  N   LIG    1       25.069  30.630  63.443  0.00  0.00    -0.229 N 
BRANCH  10  15
ATOM     15  N   LIG    1       22.710  31.544  62.669  0.00  0.00    -0.341 N 
ATOM     16  H   LIG    1       22.113  31.378  62.703  0.00  0.00    +0.144 HD
ATOM     17  H   LIG    1       22.875  32.039  62.333  0.00  0.00    +0.144 HD
ENDBRANCH  10  15
ENDBRANCH   5   6
BRANCH   4  18
ATOM     18  O   LIG    1       26.323  32.119  64.092  0.00  0.00    -0.386 OA
ATOM     19  H   LIG    1       25.721  32.005  64.187  0.00  0.00    +0.210 HD
ENDBRANCH   4  18
BRANCH   3  20
ATOM     20  O   LIG    1       28.233  31.921  65.113  0.00  0.00    -0.386 OA
ATOM     21  H   LIG    1       28.253  31.782  65.718  0.00  0.00    +0.210 HD
ENDBRANCH   3  20
BRANCH   2  22
ATOM     22  C   LIG    1       29.148  30.054  64.472  0.00  0.00    +0.190 C 
BRANCH  22  23
ATOM     23  O   LIG    1       29.685  29.467  63.866  0.00  0.00    -0.392 OA
ATOM     24  H   LIG    1       29.461  28.915  63.692  0.00  0.00    +0.210 HD
ENDBRANCH  22  23
ENDBRANCH   2  22
BRANCH   5  25
ATOM     25  C   LIG    1       26.454  29.904  62.758  0.00  0.00    +0.200 C 
BRANCH  25  26
ATOM     26  O   LIG    1       26.964  29.080  62.513  0.00  0.00    -0.392 OA
ATOM     27  H   LIG    1       26.833  28.541  62.791  0.00  0.00    +0.210 HD
ENDBRANCH  25  26
ENDBRANCH   5  25
TORSDOF 8
ENDMDL
MODEL 9
REMARK VINA RESULT:      -5.8     13.640     15.533
REMARK  Name = 44468762
REMARK                            x       y       z     vdW  Elec       q    Type
REMARK                         _______ _______ _______ _____ _____    ______ ____
ROOT
ATOM      1  O   LIG    1       23.557  32.109  62.460  0.00  0.00    -0.354 OA
ATOM      2  C   LIG    1       22.573  31.961  62.560  0.00  0.00    +0.176 C 
ATOM      3  C   LIG    1       22.439  31.094  63.042  0.00  0.00    +0.177 C 
ATOM      4  C   LIG    1       23.340  30.706  63.239  0.00  0.00    +0.185 C 
ATOM      5  C   LIG    1       24.030  31.334  62.878  0.00  0.00    +0.162 C 
ENDROOT
BRANCH   5   6
ATOM      6  C   LIG    1       24.753  30.723  63.202  0.00  0.00    +0.080 A 
ATOM      7  C   LIG    1       25.074  29.902  62.741  0.00  0.00    +0.028 A 
ATOM      8  C   LIG    1       25.796  29.500  63.293  0.00  0.00    +0.033 A 
ATOM      9  C   LIG    1       25.924  30.070  64.097  0.00  0.00    +0.105 A 
ATOM     10  C   LIG    1       26.546  30.000  64.877  0.00  0.00    +0.144 A 
ATOM     11  N   LIG    1       26.521  30.690  65.600  0.00  0.00    -0.217 NA
ATOM     12  C   LIG    1       25.873  31.450  65.544  0.00  0.00    +0.245 A 
ATOM     13  N   LIG    1       25.251  31.520  64.764  0.00  0.00    -0.154 NA
ATOM     14  N   LIG    1       25.277  30.830  64.040  0.00  0.00    -0.229 N 
BRANCH  10  15
ATOM     15  N   LIG    1       27.194  29.240  64.933  0.00  0.00    -0.341 N 
ATOM     16  H   LIG    1       27.579  29.125  64.461  0.00  0.00    +0.144 HD
ATOM     17  H   LIG    1       27.211  28.885  65.441  0.00  0.00    +0.144 HD
ENDBRANCH  10  15
ENDBRANCH   5   6
BRANCH   4  18
ATOM     18  O   LIG    1       23.518  29.844  63.712  0.00  0.00    -0.386 OA
ATOM     19  H   LIG    1       23.869  29.409  63.443  0.00  0.00    +0.210 HD
ENDBRANCH   4  18
BRANCH   3  20
ATOM     20  O   LIG    1       21.559  30.686  63.284  0.00  0.00    -0.386 OA
ATOM     21  H   LIG    1       21.474  30.446  63.850  0.00  0.00    +0.210 HD
ENDBRANCH   3  20
BRANCH   2  22
ATOM     22  C   LIG    1       21.850  32.571  62.237  0.00  0.00    +0.190 C 
BRANCH  22  23
ATOM     23  O   LIG    1       21.980  33.096  61.396  0.00  0.00    -0.392 OA
ATOM     24  H   LIG    1       21.735  32.893  60.864  0.00  0.00    +0.210 HD
ENDBRANCH  22  23
ENDBRANCH   2  22
BRANCH   5  25
ATOM     25  C   LIG    1       24.912  31.741  62.636  0.00  0.00    +0.200 C 
BRANCH  25  26
ATOM     26  O   LIG    1       24.951  32.485  61.969  0.00  0.00    -0.392 OA
ATOM     27  H   LIG    1       24.426  32.711  61.727  0.00  0.00    +0.210 HD
ENDBRANCH  25  26
ENDBRANCH   5  25
TORSDOF 8
ENDMDL
