MODEL 1
REMARK VINA RESULT:      -5.0      0.000      0.000
REMARK  Name = 6274
REMARK                            x       y       z     vdW  Elec       q    Type
REMARK                         _______ _______ _______ _____ _____    ______ ____
ROOT
ATOM      1  CA  HIS A  1       24.520  20.068  -8.970  0.00  0.00    +0.166 C 
ENDROOT
BRANCH   1   2
ATOM      2  N   HIS A  1       24.830  19.888 -10.386  0.00  0.00    -0.318 NA
ATOM      3  H1  HIS A  1       25.106  18.923 -10.562  0.00  0.00    +0.119 HD
ATOM      4  H2  HIS A  1       23.987  20.040 -10.941  0.00  0.00    +0.119 HD
ENDBRANCH   1   2
BRANCH   1   5
ATOM      5  C   HIS A  1       25.825  20.436  -8.284  0.00  0.00    +0.322 C 
ATOM      6  OXT HIS A  1       26.356  21.538  -8.335  0.00  0.00    -0.249 OA
BRANCH   5   7
ATOM      7  O   HIS A  1       26.338  19.405  -7.563  0.00  0.00    -0.480 OA
ATOM      8  H   HIS A  1       26.067  18.535  -7.927  0.00  0.00    +0.295 HD
ENDBRANCH   5   7
ENDBRANCH   1   5
BRANCH   1   9
ATOM      9  CB  HIS A  1       23.914  18.776  -8.402  0.00  0.00    +0.084 C 
BRANCH   9  10
ATOM     10  CG  HIS A  1       22.659  19.021  -7.596  0.00  0.00    +0.037 A 
ATOM     11  CD2 HIS A  1       21.396  18.584  -7.766  0.00  0.00    +0.133 A 
ATOM     12  NE2 HIS A  1       20.593  19.077  -6.768  0.00  0.00    -0.244 NA
ATOM     13  CE1 HIS A  1       21.396  19.799  -6.018  0.00  0.00    +0.196 A 
ATOM     14  ND1 HIS A  1       22.677  19.791  -6.493  0.00  0.00    -0.348 N 
ATOM     15  HD1 HIS A  1       23.470  20.273  -6.088  0.00  0.00    +0.166 HD
ENDBRANCH   9  10
ENDBRANCH   1   9
TORSDOF 5
ENDMDL
MODEL 2
REMARK VINA RESULT:      -4.8      1.792      2.258
REMARK  Name = 6274
REMARK                            x       y       z     vdW  Elec       q    Type
REMARK                         _______ _______ _______ _____ _____    ______ ____
ROOT
ATOM      1  CA  HIS A  1       23.718  19.180  -8.062  0.00  0.00    +0.166 C 
ENDROOT
BRANCH   1   2
ATOM      2  N   HIS A  1       23.345  20.314  -7.220  0.00  0.00    -0.318 NA
ATOM      3  H1  HIS A  1       24.167  20.879  -7.011  0.00  0.00    +0.119 HD
ATOM      4  H2  HIS A  1       22.712  20.926  -7.735  0.00  0.00    +0.119 HD
ENDBRANCH   1   2
BRANCH   1   5
ATOM      5  C   HIS A  1       25.186  19.364  -8.410  0.00  0.00    +0.322 C 
ATOM      6  OXT HIS A  1       25.602  19.975  -9.386  0.00  0.00    -0.249 OA
BRANCH   5   7
ATOM      7  O   HIS A  1       26.010  18.798  -7.490  0.00  0.00    -0.480 OA
ATOM      8  H   HIS A  1       26.018  19.302  -6.649  0.00  0.00    +0.295 HD
ENDBRANCH   5   7
ENDBRANCH   1   5
BRANCH   1   9
ATOM      9  CB  HIS A  1       22.828  19.147  -9.314  0.00  0.00    +0.084 C 
BRANCH   9  10
ATOM     10  CG  HIS A  1       21.434  18.637  -9.029  0.00  0.00    +0.037 A 
ATOM     11  CD2 HIS A  1       20.687  17.704  -9.651  0.00  0.00    +0.133 A 
ATOM     12  NE2 HIS A  1       19.472  17.585  -9.024  0.00  0.00    -0.244 NA
ATOM     13  CE1 HIS A  1       19.519  18.451  -8.036  0.00  0.00    +0.196 A 
ATOM     14  ND1 HIS A  1       20.710  19.120  -8.004  0.00  0.00    -0.348 N 
ATOM     15  HD1 HIS A  1       20.979  19.834  -7.339  0.00  0.00    +0.166 HD
ENDBRANCH   9  10
ENDBRANCH   1   9
TORSDOF 5
ENDMDL
MODEL 3
REMARK VINA RESULT:      -4.8     18.877     20.183
REMARK  Name = 6274
REMARK                            x       y       z     vdW  Elec       q    Type
REMARK                         _______ _______ _______ _____ _____    ______ ____
ROOT
ATOM      1  CA  HIS A  1        7.767   9.350 -13.228  0.00  0.00    +0.166 C 
ENDROOT
BRANCH   1   2
ATOM      2  N   HIS A  1        9.095   8.982 -13.712  0.00  0.00    -0.318 NA
ATOM      3  H1  HIS A  1        9.282   8.002 -13.504  0.00  0.00    +0.119 HD
ATOM      4  H2  HIS A  1        9.120   9.058 -14.729  0.00  0.00    +0.119 HD
ENDBRANCH   1   2
BRANCH   1   5
ATOM      5  C   HIS A  1        7.978  10.186 -11.976  0.00  0.00    +0.322 C 
ATOM      6  OXT HIS A  1        7.316  11.170 -11.672  0.00  0.00    -0.249 OA
BRANCH   5   7
ATOM      7  O   HIS A  1        8.975   9.699 -11.192  0.00  0.00    -0.480 OA
ATOM      8  H   HIS A  1        9.759  10.287 -11.192  0.00  0.00    +0.295 HD
ENDBRANCH   5   7
ENDBRANCH   1   5
BRANCH   1   9
ATOM      9  CB  HIS A  1        6.947   8.083 -12.945  0.00  0.00    +0.084 C 
BRANCH   9  10
ATOM     10  CG  HIS A  1        7.804   6.844 -12.819  0.00  0.00    +0.037 A 
ATOM     11  CD2 HIS A  1        7.811   5.695 -13.522  0.00  0.00    +0.133 A 
ATOM     12  NE2 HIS A  1        8.780   4.855 -13.032  0.00  0.00    -0.244 NA
ATOM     13  CE1 HIS A  1        9.334   5.522 -12.045  0.00  0.00    +0.196 A 
ATOM     14  ND1 HIS A  1        8.763   6.752 -11.880  0.00  0.00    -0.348 N 
ATOM     15  HD1 HIS A  1        9.018   7.444 -11.186  0.00  0.00    +0.166 HD
ENDBRANCH   9  10
ENDBRANCH   1   9
TORSDOF 5
ENDMDL
MODEL 4
REMARK VINA RESULT:      -4.7      1.368      1.753
REMARK  Name = 6274
REMARK                            x       y       z     vdW  Elec       q    Type
REMARK                         _______ _______ _______ _____ _____    ______ ____
ROOT
ATOM      1  CA  HIS A  1       24.369  20.069  -8.861  0.00  0.00    +0.166 C 
ENDROOT
BRANCH   1   2
ATOM      2  N   HIS A  1       24.550  19.617 -10.238  0.00  0.00    -0.318 NA
ATOM      3  H1  HIS A  1       24.070  18.729 -10.379  0.00  0.00    +0.119 HD
ATOM      4  H2  HIS A  1       24.101  20.277 -10.874  0.00  0.00    +0.119 HD
ENDBRANCH   1   2
BRANCH   1   5
ATOM      5  C   HIS A  1       25.736  20.514  -8.367  0.00  0.00    +0.322 C 
ATOM      6  OXT HIS A  1       26.224  21.620  -8.562  0.00  0.00    -0.249 OA
BRANCH   5   7
ATOM      7  O   HIS A  1       26.362  19.550  -7.643  0.00  0.00    -0.480 OA
ATOM      8  H   HIS A  1       25.759  19.133  -6.992  0.00  0.00    +0.295 HD
ENDBRANCH   5   7
ENDBRANCH   1   5
BRANCH   1   9
ATOM      9  CB  HIS A  1       23.792  18.927  -8.010  0.00  0.00    +0.084 C 
BRANCH   9  10
ATOM     10  CG  HIS A  1       22.353  18.612  -8.348  0.00  0.00    +0.037 A 
ATOM     11  CD2 HIS A  1       21.204  18.941  -7.726  0.00  0.00    +0.133 A 
ATOM     12  NE2 HIS A  1       20.136  18.421  -8.414  0.00  0.00    -0.244 NA
ATOM     13  CE1 HIS A  1       20.670  17.793  -9.437  0.00  0.00    +0.196 A 
ATOM     14  ND1 HIS A  1       22.034  17.886  -9.434  0.00  0.00    -0.348 N 
ATOM     15  HD1 HIS A  1       22.664  17.483 -10.116  0.00  0.00    +0.166 HD
ENDBRANCH   9  10
ENDBRANCH   1   9
TORSDOF 5
ENDMDL
MODEL 5
REMARK VINA RESULT:      -4.7     19.044     20.359
REMARK  Name = 6274
REMARK                            x       y       z     vdW  Elec       q    Type
REMARK                         _______ _______ _______ _____ _____    ______ ____
ROOT
ATOM      1  CA  HIS A  1        6.393  12.607 -16.139  0.00  0.00    +0.166 C 
ENDROOT
BRANCH   1   2
ATOM      2  N   HIS A  1        6.780  13.600 -15.141  0.00  0.00    -0.318 NA
ATOM      3  H1  HIS A  1        7.034  13.137 -14.269  0.00  0.00    +0.119 HD
ATOM      4  H2  HIS A  1        7.622  14.085 -15.452  0.00  0.00    +0.119 HD
ENDBRANCH   1   2
BRANCH   1   5
ATOM      5  C   HIS A  1        4.946  12.897 -16.502  0.00  0.00    +0.322 C 
ATOM      6  OXT HIS A  1        3.980  12.271 -16.081  0.00  0.00    -0.249 OA
BRANCH   5   7
ATOM      7  O   HIS A  1        4.825  13.965 -17.332  0.00  0.00    -0.480 OA
ATOM      8  H   HIS A  1        4.344  14.706 -16.906  0.00  0.00    +0.295 HD
ENDBRANCH   5   7
ENDBRANCH   1   5
BRANCH   1   9
ATOM      9  CB  HIS A  1        6.571  11.194 -15.563  0.00  0.00    +0.084 C 
BRANCH   9  10
ATOM     10  CG  HIS A  1        7.067  11.200 -14.135  0.00  0.00    +0.037 A 
ATOM     11  CD2 HIS A  1        6.437  10.925 -12.976  0.00  0.00    +0.133 A 
ATOM     12  NE2 HIS A  1        7.309  11.069 -11.926  0.00  0.00    -0.244 NA
ATOM     13  CE1 HIS A  1        8.445  11.425 -12.481  0.00  0.00    +0.196 A 
ATOM     14  ND1 HIS A  1        8.340  11.517 -13.840  0.00  0.00    -0.348 N 
ATOM     15  HD1 HIS A  1        9.079  11.775 -14.482  0.00  0.00    +0.166 HD
ENDBRANCH   9  10
ENDBRANCH   1   9
TORSDOF 5
ENDMDL
MODEL 6
REMARK VINA RESULT:      -4.6      1.967      2.378
REMARK  Name = 6274
REMARK                            x       y       z     vdW  Elec       q    Type
REMARK                         _______ _______ _______ _____ _____    ______ ____
ROOT
ATOM      1  CA  HIS A  1       24.441  18.828  -8.394  0.00  0.00    +0.166 C 
ENDROOT
BRANCH   1   2
ATOM      2  N   HIS A  1       25.648  18.643  -7.593  0.00  0.00    -0.318 NA
ATOM      3  H1  HIS A  1       25.442  18.063  -6.780  0.00  0.00    +0.119 HD
ATOM      4  H2  HIS A  1       26.339  18.124  -8.134  0.00  0.00    +0.119 HD
ENDBRANCH   1   2
BRANCH   1   5
ATOM      5  C   HIS A  1       24.811  19.773  -9.525  0.00  0.00    +0.322 C 
ATOM      6  OXT HIS A  1       25.837  20.438  -9.573  0.00  0.00    -0.249 OA
BRANCH   5   7
ATOM      7  O   HIS A  1       23.883  19.779 -10.517  0.00  0.00    -0.480 OA
ATOM      8  H   HIS A  1       24.285  19.967 -11.392  0.00  0.00    +0.295 HD
ENDBRANCH   5   7
ENDBRANCH   1   5
BRANCH   1   9
ATOM      9  CB  HIS A  1       23.315  19.394  -7.514  0.00  0.00    +0.084 C 
BRANCH   9  10
ATOM     10  CG  HIS A  1       21.955  18.839  -7.872  0.00  0.00    +0.037 A 
ATOM     11  CD2 HIS A  1       20.777  18.888  -7.219  0.00  0.00    +0.133 A 
ATOM     12  NE2 HIS A  1       19.814  18.234  -7.945  0.00  0.00    -0.244 NA
ATOM     13  CE1 HIS A  1       20.437  17.808  -9.021  0.00  0.00    +0.196 A 
ATOM     14  ND1 HIS A  1       21.757  18.160  -9.016  0.00  0.00    -0.348 N 
ATOM     15  HD1 HIS A  1       22.438  17.944  -9.733  0.00  0.00    +0.166 HD
ENDBRANCH   9  10
ENDBRANCH   1   9
TORSDOF 5
ENDMDL
MODEL 7
REMARK VINA RESULT:      -4.5      8.275      9.318
REMARK  Name = 6274
REMARK                            x       y       z     vdW  Elec       q    Type
REMARK                         _______ _______ _______ _____ _____    ______ ____
ROOT
ATOM      1  CA  HIS A  1       17.788  14.594 -13.733  0.00  0.00    +0.166 C 
ENDROOT
BRANCH   1   2
ATOM      2  N   HIS A  1       18.957  14.040 -14.412  0.00  0.00    -0.318 NA
ATOM      3  H1  HIS A  1       19.174  13.118 -14.036  0.00  0.00    +0.119 HD
ATOM      4  H2  HIS A  1       18.739  13.891 -15.397  0.00  0.00    +0.119 HD
ENDBRANCH   1   2
BRANCH   1   5
ATOM      5  C   HIS A  1       17.073  15.471 -14.747  0.00  0.00    +0.322 C 
ATOM      6  OXT HIS A  1       16.062  15.150 -15.359  0.00  0.00    -0.249 OA
BRANCH   5   7
ATOM      7  O   HIS A  1       17.660  16.688 -14.883  0.00  0.00    -0.480 OA
ATOM      8  H   HIS A  1       18.126  16.962 -14.064  0.00  0.00    +0.295 HD
ENDBRANCH   5   7
ENDBRANCH   1   5
BRANCH   1   9
ATOM      9  CB  HIS A  1       18.234  15.388 -12.495  0.00  0.00    +0.084 C 
BRANCH   9  10
ATOM     10  CG  HIS A  1       19.730  15.592 -12.435  0.00  0.00    +0.037 A 
ATOM     11  CD2 HIS A  1       20.655  15.130 -11.571  0.00  0.00    +0.133 A 
ATOM     12  NE2 HIS A  1       21.898  15.589 -11.927  0.00  0.00    -0.244 NA
ATOM     13  CE1 HIS A  1       21.691  16.316 -13.001  0.00  0.00    +0.196 A 
ATOM     14  ND1 HIS A  1       20.369  16.344 -13.349  0.00  0.00    -0.348 N 
ATOM     15  HD1 HIS A  1       19.967  16.838 -14.136  0.00  0.00    +0.166 HD
ENDBRANCH   9  10
ENDBRANCH   1   9
TORSDOF 5
ENDMDL
MODEL 8
REMARK VINA RESULT:      -4.4      3.410      4.949
REMARK  Name = 6274
REMARK                            x       y       z     vdW  Elec       q    Type
REMARK                         _______ _______ _______ _____ _____    ______ ____
ROOT
ATOM      1  CA  HIS A  1       20.264  18.736  -6.722  0.00  0.00    +0.166 C 
ENDROOT
BRANCH   1   2
ATOM      2  N   HIS A  1       19.742  19.244  -5.456  0.00  0.00    -0.318 NA
ATOM      3  H1  HIS A  1       20.381  19.938  -5.069  0.00  0.00    +0.119 HD
ATOM      4  H2  HIS A  1       18.866  19.740  -5.624  0.00  0.00    +0.119 HD
ENDBRANCH   1   2
BRANCH   1   5
ATOM      5  C   HIS A  1       21.570  19.470  -6.978  0.00  0.00    +0.322 C 
ATOM      6  OXT HIS A  1       22.036  19.702  -8.087  0.00  0.00    -0.249 OA
BRANCH   5   7
ATOM      7  O   HIS A  1       22.165  19.882  -5.829  0.00  0.00    -0.480 OA
ATOM      8  H   HIS A  1       21.829  20.755  -5.536  0.00  0.00    +0.295 HD
ENDBRANCH   5   7
ENDBRANCH   1   5
BRANCH   1   9
ATOM      9  CB  HIS A  1       19.239  18.974  -7.841  0.00  0.00    +0.084 C 
BRANCH   9  10
ATOM     10  CG  HIS A  1       19.139  17.812  -8.802  0.00  0.00    +0.037 A 
ATOM     11  CD2 HIS A  1       18.092  17.040  -9.155  0.00  0.00    +0.133 A 
ATOM     12  NE2 HIS A  1       18.492  16.101 -10.071  0.00  0.00    -0.244 NA
ATOM     13  CE1 HIS A  1       19.774  16.331 -10.249  0.00  0.00    +0.196 A 
ATOM     14  ND1 HIS A  1       20.212  17.377  -9.486  0.00  0.00    -0.348 N 
ATOM     15  HD1 HIS A  1       21.156  17.740  -9.452  0.00  0.00    +0.166 HD
ENDBRANCH   9  10
ENDBRANCH   1   9
TORSDOF 5
ENDMDL
MODEL 9
REMARK VINA RESULT:      -4.4     18.151     18.896
REMARK  Name = 6274
REMARK                            x       y       z     vdW  Elec       q    Type
REMARK                         _______ _______ _______ _____ _____    ______ ____
ROOT
ATOM      1  CA  HIS A  1        8.944  10.192 -13.294  0.00  0.00    +0.166 C 
ENDROOT
BRANCH   1   2
ATOM      2  N   HIS A  1        7.865   9.783 -14.189  0.00  0.00    -0.318 NA
ATOM      3  H1  HIS A  1        8.080  10.063 -15.145  0.00  0.00    +0.119 HD
ATOM      4  H2  HIS A  1        7.804   8.765 -14.206  0.00  0.00    +0.119 HD
ENDBRANCH   1   2
BRANCH   1   5
ATOM      5  C   HIS A  1        8.349  10.260 -11.898  0.00  0.00    +0.322 C 
ATOM      6  OXT HIS A  1        8.685   9.550 -10.959  0.00  0.00    -0.249 OA
BRANCH   5   7
ATOM      7  O   HIS A  1        7.408  11.233 -11.785  0.00  0.00    -0.480 OA
ATOM      8  H   HIS A  1        6.970  11.419 -12.642  0.00  0.00    +0.295 HD
ENDBRANCH   5   7
ENDBRANCH   1   5
BRANCH   1   9
ATOM      9  CB  HIS A  1        9.510  11.547 -13.747  0.00  0.00    +0.084 C 
BRANCH   9  10
ATOM     10  CG  HIS A  1        8.676  12.201 -14.824  0.00  0.00    +0.037 A 
ATOM     11  CD2 HIS A  1        8.934  12.437 -16.126  0.00  0.00    +0.133 A 
ATOM     12  NE2 HIS A  1        7.861  13.064 -16.708  0.00  0.00    -0.244 NA
ATOM     13  CE1 HIS A  1        6.980  13.189 -15.740  0.00  0.00    +0.196 A 
ATOM     14  ND1 HIS A  1        7.442  12.670 -14.563  0.00  0.00    -0.348 N 
ATOM     15  HD1 HIS A  1        6.946  12.651 -13.681  0.00  0.00    +0.166 HD
ENDBRANCH   9  10
ENDBRANCH   1   9
TORSDOF 5
ENDMDL
