MODEL 1
REMARK VINA RESULT:      -8.4      0.000      0.000
REMARK  Name = 91443
REMARK                            x       y       z     vdW  Elec       q    Type
REMARK                         _______ _______ _______ _____ _____    ______ ____
ROOT
ATOM      1  C   UNK A  0       20.370  15.600 -12.679  0.00  0.00    +0.027 A 
ATOM      2  C   UNK A  0       21.031  16.807 -12.904  0.00  0.00    +0.023 A 
ATOM      3  C   UNK A  0       21.814  17.372 -11.896  0.00  0.00    +0.015 A 
ATOM      4  C   UNK A  0       21.935  16.727 -10.665  0.00  0.00    +0.037 A 
ATOM      5  C   UNK A  0       21.274  15.520 -10.441  0.00  0.00    +0.015 A 
ATOM      6  C   UNK A  0       20.491  14.956 -11.448  0.00  0.00    +0.023 A 
ENDROOT
BRANCH   4   7
ATOM      7  C   UNK A  0       22.752  17.316  -9.615  0.00  0.00    +0.245 C 
ATOM      8  N   GLU A  1       22.232  18.439  -8.961  0.00  0.00    -0.298 N 
ATOM      9  H   GLU A  1       21.355  18.842  -9.273  0.00  0.00    +0.150 HD
ATOM     10  O   UNK A  0       23.867  16.839  -9.340  0.00  0.00    -0.270 OA
BRANCH   8  11
ATOM     11  CA  GLU A  1       22.933  19.149  -7.914  0.00  0.00    +0.182 C 
BRANCH  11  12
ATOM     12  C   GLU A  1       21.918  19.511  -6.849  0.00  0.00    +0.325 C 
ATOM     13  OXT GLU A  1       20.758  19.121  -6.817  0.00  0.00    -0.249 OA
BRANCH  12  14
ATOM     14  O   GLU A  1       22.457  20.303  -5.885  0.00  0.00    -0.479 OA
ATOM     15  H   GLU A  1       23.437  20.307  -5.920  0.00  0.00    +0.295 HD
ENDBRANCH  12  14
ENDBRANCH  11  12
BRANCH  11  16
ATOM     16  CB  GLU A  1       23.730  20.348  -8.443  0.00  0.00    +0.045 C 
BRANCH  16  17
ATOM     17  CG  GLU A  1       25.220  20.095  -8.707  0.00  0.00    +0.123 C 
BRANCH  17  18
ATOM     18  CD  GLU A  1       26.011  21.354  -8.992  0.00  0.00    +0.305 C 
ATOM     19  OE2 GLU A  1       25.768  22.161  -9.878  0.00  0.00    -0.251 OA
BRANCH  18  20
ATOM     20  OE1 GLU A  1       27.076  21.474  -8.156  0.00  0.00    -0.481 OA
ATOM     21  HE1 GLU A  1       27.548  22.324  -8.285  0.00  0.00    +0.295 HD
ENDBRANCH  18  20
ENDBRANCH  17  18
ENDBRANCH  16  17
ENDBRANCH  11  16
ENDBRANCH   8  11
ENDBRANCH   4   7
BRANCH   1  22
ATOM     22  N   UNK A  0       19.591  15.037 -13.682  0.00  0.00    -0.342 N 
ATOM     23  H   UNK A  0       19.365  15.624 -14.478  0.00  0.00    +0.146 HD
BRANCH  22  24
ATOM     24  C   UNK A  0       19.118  13.679 -13.664  0.00  0.00    +0.125 C 
BRANCH  24  35
ATOM     25  O   UNK A  0       17.070  11.145 -17.219  0.00  0.00    -0.264 OA
ATOM     26  C   UNK A  0       17.443  10.437 -16.287  0.00  0.00    +0.297 A 
ATOM     27  C   UNK A  0       18.530  10.927 -15.372  0.00  0.00    +0.133 A 
ATOM     28  C   UNK A  0       18.950  10.139 -14.357  0.00  0.00    +0.125 A 
ATOM     29  N   UNK A  0       18.346   8.916 -14.183  0.00  0.00    -0.315 N 
ATOM     30  H   UNK A  0       18.676   8.346 -13.412  0.00  0.00    +0.170 HD
ATOM     31  C   UNK A  0       17.346   8.484 -15.021  0.00  0.00    +0.195 A 
ATOM     32  N   UNK A  0       19.971  10.612 -13.545  0.00  0.00    -0.327 N 
ATOM     33  H   UNK A  0       20.286   9.992 -12.807  0.00  0.00    +0.148 HD
ATOM     34  C   UNK A  0       20.783  11.771 -13.890  0.00  0.00    +0.126 C 
ATOM     35  C   UNK A  0       19.945  12.833 -14.631  0.00  0.00    +0.105 C 
ATOM     36  N   UNK A  0       19.053  12.184 -15.587  0.00  0.00    -0.331 N 
ATOM     37  H   UNK A  0       18.664  12.729 -16.350  0.00  0.00    +0.147 HD
ATOM     38  N   UNK A  0       16.899   9.188 -16.029  0.00  0.00    -0.176 NA
BRANCH  31  39
ATOM     39  N   UNK A  0       16.856   7.243 -14.706  0.00  0.00    -0.329 N 
ATOM     40  H   UNK A  0       17.303   6.665 -14.004  0.00  0.00    +0.145 HD
ATOM     41  H   UNK A  0       16.034   6.868 -15.166  0.00  0.00    +0.145 HD
ENDBRANCH  31  39
ENDBRANCH  24  35
ENDBRANCH  22  24
ENDBRANCH   1  22
TORSDOF 12
ENDMDL
MODEL 2
REMARK VINA RESULT:      -8.2      1.943      3.600
REMARK  Name = 91443
REMARK                            x       y       z     vdW  Elec       q    Type
REMARK                         _______ _______ _______ _____ _____    ______ ____
ROOT
ATOM      1  C   UNK A  0       20.277  15.256 -12.428  0.00  0.00    +0.027 A 
ATOM      2  C   UNK A  0       20.013  15.498 -11.080  0.00  0.00    +0.023 A 
ATOM      3  C   UNK A  0       20.640  16.559 -10.427  0.00  0.00    +0.015 A 
ATOM      4  C   UNK A  0       21.530  17.379 -11.122  0.00  0.00    +0.037 A 
ATOM      5  C   UNK A  0       21.792  17.136 -12.470  0.00  0.00    +0.015 A 
ATOM      6  C   UNK A  0       21.166  16.075 -13.123  0.00  0.00    +0.023 A 
ENDROOT
BRANCH   4   7
ATOM      7  C   UNK A  0       22.183  18.486 -10.441  0.00  0.00    +0.245 C 
ATOM      8  N   GLU A  1       22.685  18.234  -9.159  0.00  0.00    -0.298 N 
ATOM      9  H   GLU A  1       22.525  17.331  -8.724  0.00  0.00    +0.150 HD
ATOM     10  O   UNK A  0       22.262  19.602 -10.982  0.00  0.00    -0.270 OA
BRANCH   8  11
ATOM     11  CA  GLU A  1       23.338  19.236  -8.346  0.00  0.00    +0.182 C 
BRANCH  11  12
ATOM     12  C   GLU A  1       24.825  19.148  -8.619  0.00  0.00    +0.325 C 
ATOM     13  OXT GLU A  1       25.628  18.504  -7.957  0.00  0.00    -0.249 OA
BRANCH  12  14
ATOM     14  O   GLU A  1       25.179  19.848  -9.729  0.00  0.00    -0.479 OA
ATOM     15  H   GLU A  1       26.152  19.902  -9.832  0.00  0.00    +0.295 HD
ENDBRANCH  12  14
ENDBRANCH  11  12
BRANCH  11  16
ATOM     16  CB  GLU A  1       22.973  19.123  -6.860  0.00  0.00    +0.045 C 
BRANCH  16  17
ATOM     17  CG  GLU A  1       21.751  19.933  -6.409  0.00  0.00    +0.123 C 
BRANCH  17  18
ATOM     18  CD  GLU A  1       20.441  19.185  -6.539  0.00  0.00    +0.305 C 
ATOM     19  OE2 GLU A  1       20.027  18.651  -7.558  0.00  0.00    -0.251 OA
BRANCH  18  20
ATOM     20  OE1 GLU A  1       19.737  19.205  -5.377  0.00  0.00    -0.481 OA
ATOM     21  HE1 GLU A  1       18.855  18.786  -5.478  0.00  0.00    +0.295 HD
ENDBRANCH  18  20
ENDBRANCH  17  18
ENDBRANCH  16  17
ENDBRANCH  11  16
ENDBRANCH   8  11
ENDBRANCH   4   7
BRANCH   1  22
ATOM     22  N   UNK A  0       19.652  14.200 -13.079  0.00  0.00    -0.342 N 
ATOM     23  H   UNK A  0       20.033  13.272 -12.929  0.00  0.00    +0.146 HD
BRANCH  22  24
ATOM     24  C   UNK A  0       18.494  14.348 -13.919  0.00  0.00    +0.125 C 
BRANCH  24  35
ATOM     25  O   UNK A  0       19.724   9.691 -14.164  0.00  0.00    -0.264 OA
ATOM     26  C   UNK A  0       19.033  10.050 -15.115  0.00  0.00    +0.297 A 
ATOM     27  C   UNK A  0       18.139  11.249 -14.972  0.00  0.00    +0.133 A 
ATOM     28  C   UNK A  0       17.368  11.632 -16.015  0.00  0.00    +0.125 A 
ATOM     29  N   UNK A  0       17.446  10.915 -17.186  0.00  0.00    -0.315 N 
ATOM     30  H   UNK A  0       16.861  11.225 -17.954  0.00  0.00    +0.170 HD
ATOM     31  C   UNK A  0       18.275   9.826 -17.307  0.00  0.00    +0.195 A 
ATOM     32  N   UNK A  0       16.537  12.729 -15.842  0.00  0.00    -0.327 N 
ATOM     33  H   UNK A  0       15.949  12.981 -16.630  0.00  0.00    +0.148 HD
ATOM     34  C   UNK A  0       16.256  13.310 -14.537  0.00  0.00    +0.126 C 
ATOM     35  C   UNK A  0       17.494  13.233 -13.619  0.00  0.00    +0.105 C 
ATOM     36  N   UNK A  0       18.151  11.939 -13.779  0.00  0.00    -0.331 N 
ATOM     37  H   UNK A  0       18.781  11.611 -13.055  0.00  0.00    +0.147 HD
ATOM     38  N   UNK A  0       19.039   9.394 -16.337  0.00  0.00    -0.176 NA
BRANCH  31  39
ATOM     39  N   UNK A  0       18.230   9.229 -18.539  0.00  0.00    -0.329 N 
ATOM     40  H   UNK A  0       18.042   9.767 -19.377  0.00  0.00    +0.145 HD
ATOM     41  H   UNK A  0       18.383   8.233 -18.650  0.00  0.00    +0.145 HD
ENDBRANCH  31  39
ENDBRANCH  24  35
ENDBRANCH  22  24
ENDBRANCH   1  22
TORSDOF 12
ENDMDL
MODEL 3
REMARK VINA RESULT:      -8.2      1.624      2.217
REMARK  Name = 91443
REMARK                            x       y       z     vdW  Elec       q    Type
REMARK                         _______ _______ _______ _____ _____    ______ ____
ROOT
ATOM      1  C   UNK A  0       20.874  14.925 -12.680  0.00  0.00    +0.027 A 
ATOM      2  C   UNK A  0       22.189  14.541 -12.415  0.00  0.00    +0.023 A 
ATOM      3  C   UNK A  0       22.966  15.282 -11.524  0.00  0.00    +0.015 A 
ATOM      4  C   UNK A  0       22.427  16.406 -10.898  0.00  0.00    +0.037 A 
ATOM      5  C   UNK A  0       21.113  16.789 -11.162  0.00  0.00    +0.015 A 
ATOM      6  C   UNK A  0       20.336  16.049 -12.054  0.00  0.00    +0.023 A 
ENDROOT
BRANCH   4   7
ATOM      7  C   UNK A  0       23.238  17.178  -9.968  0.00  0.00    +0.245 C 
ATOM      8  N   GLU A  1       22.563  18.074  -9.131  0.00  0.00    -0.298 N 
ATOM      9  H   GLU A  1       21.563  18.208  -9.239  0.00  0.00    +0.150 HD
ATOM     10  O   UNK A  0       24.474  17.046  -9.948  0.00  0.00    -0.270 OA
BRANCH   8  11
ATOM     11  CA  GLU A  1       23.229  18.927  -8.172  0.00  0.00    +0.182 C 
BRANCH  11  12
ATOM     12  C   GLU A  1       22.225  19.271  -7.092  0.00  0.00    +0.325 C 
ATOM     13  OXT GLU A  1       21.077  18.850  -7.034  0.00  0.00    -0.249 OA
BRANCH  12  14
ATOM     14  O   GLU A  1       22.759  20.088  -6.145  0.00  0.00    -0.479 OA
ATOM     15  H   GLU A  1       23.657  20.393  -6.392  0.00  0.00    +0.295 HD
ENDBRANCH  12  14
ENDBRANCH  11  12
BRANCH  11  16
ATOM     16  CB  GLU A  1       23.883  20.153  -8.823  0.00  0.00    +0.045 C 
BRANCH  16  17
ATOM     17  CG  GLU A  1       25.362  20.379  -8.484  0.00  0.00    +0.123 C 
BRANCH  17  18
ATOM     18  CD  GLU A  1       26.070  21.317  -9.439  0.00  0.00    +0.305 C 
ATOM     19  OE2 GLU A  1       26.486  22.432  -9.161  0.00  0.00    -0.251 OA
BRANCH  18  20
ATOM     20  OE1 GLU A  1       26.160  20.785 -10.687  0.00  0.00    -0.481 OA
ATOM     21  HE1 GLU A  1       25.424  21.082 -11.264  0.00  0.00    +0.295 HD
ENDBRANCH  18  20
ENDBRANCH  17  18
ENDBRANCH  16  17
ENDBRANCH  11  16
ENDBRANCH   8  11
ENDBRANCH   4   7
BRANCH   1  22
ATOM     22  N   UNK A  0       20.100  14.187 -13.566  0.00  0.00    -0.342 N 
ATOM     23  H   UNK A  0       20.508  13.338 -13.942  0.00  0.00    +0.146 HD
BRANCH  22  24
ATOM     24  C   UNK A  0       18.762  14.545 -13.952  0.00  0.00    +0.125 C 
BRANCH  24  35
ATOM     25  O   UNK A  0       19.879   9.857 -14.124  0.00  0.00    -0.264 OA
ATOM     26  C   UNK A  0       19.087  10.188 -15.004  0.00  0.00    +0.297 A 
ATOM     27  C   UNK A  0       18.236  11.412 -14.813  0.00  0.00    +0.133 A 
ATOM     28  C   UNK A  0       17.353  11.765 -15.775  0.00  0.00    +0.125 A 
ATOM     29  N   UNK A  0       17.283  10.996 -16.913  0.00  0.00    -0.315 N 
ATOM     30  H   UNK A  0       16.617  11.284 -17.622  0.00  0.00    +0.170 HD
ATOM     31  C   UNK A  0       18.074   9.885 -17.080  0.00  0.00    +0.195 A 
ATOM     32  N   UNK A  0       16.567  12.886 -15.557  0.00  0.00    -0.327 N 
ATOM     33  H   UNK A  0       15.894  13.115 -16.281  0.00  0.00    +0.148 HD
ATOM     34  C   UNK A  0       16.450  13.530 -14.256  0.00  0.00    +0.126 C 
ATOM     35  C   UNK A  0       17.785  13.466 -13.486  0.00  0.00    +0.105 C 
ATOM     36  N   UNK A  0       18.398  12.153 -13.662  0.00  0.00    -0.331 N 
ATOM     37  H   UNK A  0       19.104  11.843 -13.002  0.00  0.00    +0.147 HD
ATOM     38  N   UNK A  0       18.940   9.479 -16.186  0.00  0.00    -0.176 NA
BRANCH  31  39
ATOM     39  N   UNK A  0       17.876   9.236 -18.270  0.00  0.00    -0.329 N 
ATOM     40  H   UNK A  0       17.221   8.466 -18.345  0.00  0.00    +0.145 HD
ATOM     41  H   UNK A  0       18.377   9.505 -19.109  0.00  0.00    +0.145 HD
ENDBRANCH  31  39
ENDBRANCH  24  35
ENDBRANCH  22  24
ENDBRANCH   1  22
TORSDOF 12
ENDMDL
MODEL 4
REMARK VINA RESULT:      -8.1      3.025     11.237
REMARK  Name = 91443
REMARK                            x       y       z     vdW  Elec       q    Type
REMARK                         _______ _______ _______ _____ _____    ______ ____
ROOT
ATOM      1  C   UNK A  0       19.671  15.027 -12.660  0.00  0.00    +0.027 A 
ATOM      2  C   UNK A  0       20.405  14.038 -13.315  0.00  0.00    +0.023 A 
ATOM      3  C   UNK A  0       19.745  13.024 -14.009  0.00  0.00    +0.015 A 
ATOM      4  C   UNK A  0       18.351  12.999 -14.048  0.00  0.00    +0.037 A 
ATOM      5  C   UNK A  0       17.617  13.988 -13.393  0.00  0.00    +0.015 A 
ATOM      6  C   UNK A  0       18.278  15.002 -12.699  0.00  0.00    +0.023 A 
ENDROOT
BRANCH   4   7
ATOM      7  C   UNK A  0       17.663  11.942 -14.772  0.00  0.00    +0.245 C 
ATOM      8  N   GLU A  1       17.854  10.632 -14.316  0.00  0.00    -0.298 N 
ATOM      9  H   GLU A  1       18.503  10.454 -13.557  0.00  0.00    +0.150 HD
ATOM     10  O   UNK A  0       16.958  12.209 -15.760  0.00  0.00    -0.270 OA
BRANCH   8  11
ATOM     11  CA  GLU A  1       17.259   9.473 -14.943  0.00  0.00    +0.182 C 
BRANCH  11  12
ATOM     12  C   GLU A  1       16.322   8.840 -13.935  0.00  0.00    +0.325 C 
ATOM     13  OXT GLU A  1       15.373   9.401 -13.402  0.00  0.00    -0.249 OA
BRANCH  12  14
ATOM     14  O   GLU A  1       16.629   7.535 -13.708  0.00  0.00    -0.479 OA
ATOM     15  H   GLU A  1       17.531   7.313 -14.020  0.00  0.00    +0.295 HD
ENDBRANCH  12  14
ENDBRANCH  11  12
BRANCH  11  16
ATOM     16  CB  GLU A  1       18.304   8.505 -15.511  0.00  0.00    +0.045 C 
BRANCH  16  17
ATOM     17  CG  GLU A  1       19.147   9.040 -16.676  0.00  0.00    +0.123 C 
BRANCH  17  18
ATOM     18  CD  GLU A  1       18.326   9.503 -17.860  0.00  0.00    +0.305 C 
ATOM     19  OE2 GLU A  1       17.702   8.776 -18.619  0.00  0.00    -0.251 OA
BRANCH  18  20
ATOM     20  OE1 GLU A  1       18.392  10.851 -18.017  0.00  0.00    -0.481 OA
ATOM     21  HE1 GLU A  1       18.791  11.100 -18.879  0.00  0.00    +0.295 HD
ENDBRANCH  18  20
ENDBRANCH  17  18
ENDBRANCH  16  17
ENDBRANCH  11  16
ENDBRANCH   8  11
ENDBRANCH   4   7
BRANCH   1  22
ATOM     22  N   UNK A  0       20.329  16.037 -11.970  0.00  0.00    -0.342 N 
ATOM     23  H   UNK A  0       19.754  16.708 -11.471  0.00  0.00    +0.146 HD
BRANCH  22  24
ATOM     24  C   UNK A  0       21.760  16.164 -11.905  0.00  0.00    +0.125 C 
BRANCH  24  35
ATOM     25  O   UNK A  0       19.637  17.102  -7.678  0.00  0.00    -0.264 OA
ATOM     26  C   UNK A  0       20.702  17.699  -7.816  0.00  0.00    +0.297 A 
ATOM     27  C   UNK A  0       21.733  17.164  -8.769  0.00  0.00    +0.133 A 
ATOM     28  C   UNK A  0       22.912  17.813  -8.907  0.00  0.00    +0.125 A 
ATOM     29  N   UNK A  0       23.115  18.963  -8.179  0.00  0.00    -0.315 N 
ATOM     30  H   UNK A  0       24.005  19.434  -8.304  0.00  0.00    +0.170 HD
ATOM     31  C   UNK A  0       22.159  19.446  -7.319  0.00  0.00    +0.195 A 
ATOM     32  N   UNK A  0       23.851  17.281  -9.777  0.00  0.00    -0.327 N 
ATOM     33  H   UNK A  0       24.736  17.771  -9.844  0.00  0.00    +0.148 HD
ATOM     34  C   UNK A  0       23.744  15.938 -10.331  0.00  0.00    +0.126 C 
ATOM     35  C   UNK A  0       22.271  15.565 -10.596  0.00  0.00    +0.105 C 
ATOM     36  N   UNK A  0       21.435  16.030  -9.494  0.00  0.00    -0.331 N 
ATOM     37  H   UNK A  0       20.517  15.618  -9.360  0.00  0.00    +0.147 HD
ATOM     38  N   UNK A  0       21.004  18.864  -7.127  0.00  0.00    -0.176 NA
BRANCH  31  39
ATOM     39  N   UNK A  0       22.526  20.599  -6.674  0.00  0.00    -0.329 N 
ATOM     40  H   UNK A  0       22.735  20.602  -5.683  0.00  0.00    +0.145 HD
ATOM     41  H   UNK A  0       22.597  21.481  -7.169  0.00  0.00    +0.145 HD
ENDBRANCH  31  39
ENDBRANCH  24  35
ENDBRANCH  22  24
ENDBRANCH   1  22
TORSDOF 12
ENDMDL
MODEL 5
REMARK VINA RESULT:      -8.0      1.960      2.703
REMARK  Name = 91443
REMARK                            x       y       z     vdW  Elec       q    Type
REMARK                         _______ _______ _______ _____ _____    ______ ____
ROOT
ATOM      1  C   UNK A  0       19.725  14.364 -13.063  0.00  0.00    +0.027 A 
ATOM      2  C   UNK A  0       20.047  13.645 -11.911  0.00  0.00    +0.023 A 
ATOM      3  C   UNK A  0       20.620  14.298 -10.819  0.00  0.00    +0.015 A 
ATOM      4  C   UNK A  0       20.871  15.669 -10.880  0.00  0.00    +0.037 A 
ATOM      5  C   UNK A  0       20.548  16.387 -12.031  0.00  0.00    +0.015 A 
ATOM      6  C   UNK A  0       19.976  15.734 -13.123  0.00  0.00    +0.023 A 
ENDROOT
BRANCH   4   7
ATOM      7  C   UNK A  0       21.467  16.350  -9.740  0.00  0.00    +0.245 C 
ATOM      8  N   GLU A  1       20.778  17.456  -9.230  0.00  0.00    -0.298 N 
ATOM      9  H   GLU A  1       19.939  17.785  -9.697  0.00  0.00    +0.150 HD
ATOM     10  O   UNK A  0       22.550  15.962  -9.270  0.00  0.00    -0.270 OA
BRANCH   8  11
ATOM     11  CA  GLU A  1       21.252  18.249  -8.118  0.00  0.00    +0.182 C 
BRANCH  11  12
ATOM     12  C   GLU A  1       20.040  18.711  -7.336  0.00  0.00    +0.325 C 
ATOM     13  OXT GLU A  1       20.049  19.067  -6.165  0.00  0.00    -0.249 OA
BRANCH  12  14
ATOM     14  O   GLU A  1       18.918  18.726  -8.103  0.00  0.00    -0.479 OA
ATOM     15  H   GLU A  1       18.719  19.625  -8.440  0.00  0.00    +0.295 HD
ENDBRANCH  12  14
ENDBRANCH  11  12
BRANCH  11  16
ATOM     16  CB  GLU A  1       22.178  19.390  -8.557  0.00  0.00    +0.045 C 
BRANCH  16  17
ATOM     17  CG  GLU A  1       23.547  19.443  -7.866  0.00  0.00    +0.123 C 
BRANCH  17  18
ATOM     18  CD  GLU A  1       24.715  19.266  -8.812  0.00  0.00    +0.305 C 
ATOM     19  OE2 GLU A  1       24.843  19.821  -9.894  0.00  0.00    -0.251 OA
BRANCH  18  20
ATOM     20  OE1 GLU A  1       25.615  18.368  -8.332  0.00  0.00    -0.481 OA
ATOM     21  HE1 GLU A  1       26.249  18.783  -7.710  0.00  0.00    +0.295 HD
ENDBRANCH  18  20
ENDBRANCH  17  18
ENDBRANCH  16  17
ENDBRANCH  11  16
ENDBRANCH   8  11
ENDBRANCH   4   7
BRANCH   1  22
ATOM     22  N   UNK A  0       19.154  13.714 -14.149  0.00  0.00    -0.342 N 
ATOM     23  H   UNK A  0       19.049  14.247 -15.006  0.00  0.00    +0.146 HD
BRANCH  22  24
ATOM     24  C   UNK A  0       18.736  12.338 -14.131  0.00  0.00    +0.125 C 
BRANCH  24  35
ATOM     25  O   UNK A  0       16.083   8.524 -12.838  0.00  0.00    -0.264 OA
ATOM     26  C   UNK A  0       16.332   8.542 -14.042  0.00  0.00    +0.297 A 
ATOM     27  C   UNK A  0       16.664   9.846 -14.710  0.00  0.00    +0.133 A 
ATOM     28  C   UNK A  0       16.922   9.866 -16.038  0.00  0.00    +0.125 A 
ATOM     29  N   UNK A  0       16.891   8.677 -16.729  0.00  0.00    -0.315 N 
ATOM     30  H   UNK A  0       17.092   8.718 -17.722  0.00  0.00    +0.170 HD
ATOM     31  C   UNK A  0       16.596   7.490 -16.103  0.00  0.00    +0.195 A 
ATOM     32  N   UNK A  0       17.202  11.089 -16.629  0.00  0.00    -0.327 N 
ATOM     33  H   UNK A  0       17.366  11.082 -17.630  0.00  0.00    +0.148 HD
ATOM     34  C   UNK A  0       16.969  12.362 -15.960  0.00  0.00    +0.126 C 
ATOM     35  C   UNK A  0       17.243  12.250 -14.446  0.00  0.00    +0.105 C 
ATOM     36  N   UNK A  0       16.717  10.987 -13.939  0.00  0.00    -0.331 N 
ATOM     37  H   UNK A  0       16.544  10.887 -12.944  0.00  0.00    +0.147 HD
ATOM     38  N   UNK A  0       16.325   7.399 -14.827  0.00  0.00    -0.176 NA
BRANCH  31  39
ATOM     39  N   UNK A  0       16.608   6.404 -16.939  0.00  0.00    -0.329 N 
ATOM     40  H   UNK A  0       17.479   6.022 -17.290  0.00  0.00    +0.145 HD
ATOM     41  H   UNK A  0       15.749   5.953 -17.231  0.00  0.00    +0.145 HD
ENDBRANCH  31  39
ENDBRANCH  24  35
ENDBRANCH  22  24
ENDBRANCH   1  22
TORSDOF 12
ENDMDL
MODEL 6
REMARK VINA RESULT:      -8.0      2.822      4.530
REMARK  Name = 91443
REMARK                            x       y       z     vdW  Elec       q    Type
REMARK                         _______ _______ _______ _____ _____    ______ ____
ROOT
ATOM      1  C   UNK A  0       22.763  15.407 -13.292  0.00  0.00    +0.027 A 
ATOM      2  C   UNK A  0       22.244  16.684 -13.077  0.00  0.00    +0.023 A 
ATOM      3  C   UNK A  0       22.669  17.434 -11.980  0.00  0.00    +0.015 A 
ATOM      4  C   UNK A  0       23.615  16.908 -11.100  0.00  0.00    +0.037 A 
ATOM      5  C   UNK A  0       24.134  15.632 -11.316  0.00  0.00    +0.015 A 
ATOM      6  C   UNK A  0       23.708  14.881 -12.412  0.00  0.00    +0.023 A 
ENDROOT
BRANCH   4   7
ATOM      7  C   UNK A  0       24.059  17.691  -9.957  0.00  0.00    +0.245 C 
ATOM      8  N   GLU A  1       23.499  18.965  -9.806  0.00  0.00    -0.298 N 
ATOM      9  H   GLU A  1       22.867  19.325 -10.514  0.00  0.00    +0.150 HD
ATOM     10  O   UNK A  0       24.912  17.239  -9.175  0.00  0.00    -0.270 OA
BRANCH   8  11
ATOM     11  CA  GLU A  1       23.854  19.872  -8.737  0.00  0.00    +0.182 C 
BRANCH  11  12
ATOM     12  C   GLU A  1       25.348  20.108  -8.816  0.00  0.00    +0.325 C 
ATOM     13  OXT GLU A  1       25.928  20.660  -9.742  0.00  0.00    -0.249 OA
BRANCH  12  14
ATOM     14  O   GLU A  1       25.990  19.665  -7.703  0.00  0.00    -0.479 OA
ATOM     15  H   GLU A  1       26.550  20.364  -7.302  0.00  0.00    +0.295 HD
ENDBRANCH  12  14
ENDBRANCH  11  12
BRANCH  11  16
ATOM     16  CB  GLU A  1       23.375  19.385  -7.364  0.00  0.00    +0.045 C 
BRANCH  16  17
ATOM     17  CG  GLU A  1       21.905  19.668  -7.030  0.00  0.00    +0.123 C 
BRANCH  17  18
ATOM     18  CD  GLU A  1       20.956  18.579  -7.483  0.00  0.00    +0.305 C 
ATOM     19  OE2 GLU A  1       21.285  17.511  -7.978  0.00  0.00    -0.251 OA
BRANCH  18  20
ATOM     20  OE1 GLU A  1       19.658  18.945  -7.312  0.00  0.00    -0.481 OA
ATOM     21  HE1 GLU A  1       19.514  19.892  -7.526  0.00  0.00    +0.295 HD
ENDBRANCH  18  20
ENDBRANCH  17  18
ENDBRANCH  16  17
ENDBRANCH  11  16
ENDBRANCH   8  11
ENDBRANCH   4   7
BRANCH   1  22
ATOM     22  N   UNK A  0       22.340  14.660 -14.384  0.00  0.00    -0.342 N 
ATOM     23  H   UNK A  0       21.969  15.169 -15.178  0.00  0.00    +0.146 HD
BRANCH  22  24
ATOM     24  C   UNK A  0       22.425  13.226 -14.455  0.00  0.00    +0.125 C 
BRANCH  24  35
ATOM     25  O   UNK A  0       18.478  15.981 -14.174  0.00  0.00    -0.264 OA
ATOM     26  C   UNK A  0       18.695  15.358 -13.138  0.00  0.00    +0.297 A 
ATOM     27  C   UNK A  0       19.515  14.100 -13.188  0.00  0.00    +0.133 A 
ATOM     28  C   UNK A  0       19.739  13.406 -12.049  0.00  0.00    +0.125 A 
ATOM     29  N   UNK A  0       19.221  13.893 -10.872  0.00  0.00    -0.315 N 
ATOM     30  H   UNK A  0       19.406  13.357 -10.031  0.00  0.00    +0.170 HD
ATOM     31  C   UNK A  0       18.480  15.050 -10.839  0.00  0.00    +0.195 A 
ATOM     32  N   UNK A  0       20.481  12.237 -12.134  0.00  0.00    -0.327 N 
ATOM     33  H   UNK A  0       20.613  11.721 -11.271  0.00  0.00    +0.148 HD
ATOM     34  C   UNK A  0       20.791  11.588 -13.400  0.00  0.00    +0.126 C 
ATOM     35  C   UNK A  0       21.019  12.629 -14.514  0.00  0.00    +0.105 C 
ATOM     36  N   UNK A  0       20.035  13.702 -14.401  0.00  0.00    -0.331 N 
ATOM     37  H   UNK A  0       19.852  14.292 -15.205  0.00  0.00    +0.147 HD
ATOM     38  N   UNK A  0       18.215  15.765 -11.902  0.00  0.00    -0.176 NA
BRANCH  31  39
ATOM     39  N   UNK A  0       18.041  15.392  -9.586  0.00  0.00    -0.329 N 
ATOM     40  H   UNK A  0       18.439  16.178  -9.086  0.00  0.00    +0.145 HD
ATOM     41  H   UNK A  0       17.306  14.868  -9.124  0.00  0.00    +0.145 HD
ENDBRANCH  31  39
ENDBRANCH  24  35
ENDBRANCH  22  24
ENDBRANCH   1  22
TORSDOF 12
ENDMDL
MODEL 7
REMARK VINA RESULT:      -7.9      4.432     12.324
REMARK  Name = 91443
REMARK                            x       y       z     vdW  Elec       q    Type
REMARK                         _______ _______ _______ _____ _____    ______ ____
ROOT
ATOM      1  C   UNK A  0       17.854  12.742 -14.420  0.00  0.00    +0.027 A 
ATOM      2  C   UNK A  0       18.796  11.784 -14.798  0.00  0.00    +0.023 A 
ATOM      3  C   UNK A  0       18.443  10.435 -14.832  0.00  0.00    +0.015 A 
ATOM      4  C   UNK A  0       17.149  10.044 -14.489  0.00  0.00    +0.037 A 
ATOM      5  C   UNK A  0       16.208  11.001 -14.112  0.00  0.00    +0.015 A 
ATOM      6  C   UNK A  0       16.560  12.350 -14.077  0.00  0.00    +0.023 A 
ENDROOT
BRANCH   4   7
ATOM      7  C   UNK A  0       16.782   8.636 -14.526  0.00  0.00    +0.245 C 
ATOM      8  N   GLU A  1       17.627   7.779 -15.240  0.00  0.00    -0.298 N 
ATOM      9  H   GLU A  1       18.414   8.161 -15.755  0.00  0.00    +0.150 HD
ATOM     10  O   UNK A  0       15.750   8.238 -13.960  0.00  0.00    -0.270 OA
BRANCH   8  11
ATOM     11  CA  GLU A  1       17.386   6.361 -15.389  0.00  0.00    +0.182 C 
BRANCH  11  12
ATOM     12  C   GLU A  1       18.729   5.662 -15.350  0.00  0.00    +0.325 C 
ATOM     13  OXT GLU A  1       18.909   4.467 -15.543  0.00  0.00    -0.249 OA
BRANCH  12  14
ATOM     14  O   GLU A  1       19.746   6.531 -15.110  0.00  0.00    -0.479 OA
ATOM     15  H   GLU A  1       20.339   6.623 -15.886  0.00  0.00    +0.295 HD
ENDBRANCH  12  14
ENDBRANCH  11  12
BRANCH  11  16
ATOM     16  CB  GLU A  1       16.550   6.030 -16.632  0.00  0.00    +0.045 C 
BRANCH  16  17
ATOM     17  CG  GLU A  1       15.352   5.100 -16.402  0.00  0.00    +0.123 C 
BRANCH  17  18
ATOM     18  CD  GLU A  1       14.020   5.818 -16.375  0.00  0.00    +0.305 C 
ATOM     19  OE2 GLU A  1       13.213   5.853 -17.293  0.00  0.00    -0.251 OA
BRANCH  18  20
ATOM     20  OE1 GLU A  1       13.829   6.472 -15.198  0.00  0.00    -0.481 OA
ATOM     21  HE1 GLU A  1       14.120   7.407 -15.249  0.00  0.00    +0.295 HD
ENDBRANCH  18  20
ENDBRANCH  17  18
ENDBRANCH  16  17
ENDBRANCH  11  16
ENDBRANCH   8  11
ENDBRANCH   4   7
BRANCH   1  22
ATOM     22  N   UNK A  0       18.204  14.085 -14.387  0.00  0.00    -0.342 N 
ATOM     23  H   UNK A  0       18.446  14.524 -15.269  0.00  0.00    +0.146 HD
BRANCH  22  24
ATOM     24  C   UNK A  0       18.216  14.881 -13.189  0.00  0.00    +0.125 C 
BRANCH  24  35
ATOM     25  O   UNK A  0       17.310  15.231  -8.465  0.00  0.00    -0.264 OA
ATOM     26  C   UNK A  0       18.245  15.943  -8.822  0.00  0.00    +0.297 A 
ATOM     27  C   UNK A  0       19.002  15.600 -10.074  0.00  0.00    +0.133 A 
ATOM     28  C   UNK A  0       20.042  16.376 -10.456  0.00  0.00    +0.125 A 
ATOM     29  N   UNK A  0       20.358  17.473  -9.689  0.00  0.00    -0.315 N 
ATOM     30  H   UNK A  0       21.138  18.041  -9.999  0.00  0.00    +0.170 HD
ATOM     31  C   UNK A  0       19.651  17.781  -8.552  0.00  0.00    +0.195 A 
ATOM     32  N   UNK A  0       20.734  16.019 -11.604  0.00  0.00    -0.327 N 
ATOM     33  H   UNK A  0       21.526  16.601 -11.855  0.00  0.00    +0.148 HD
ATOM     34  C   UNK A  0       20.575  14.724 -12.253  0.00  0.00    +0.126 C 
ATOM     35  C   UNK A  0       19.119  14.227 -12.144  0.00  0.00    +0.105 C 
ATOM     36  N   UNK A  0       18.596  14.509 -10.811  0.00  0.00    -0.331 N 
ATOM     37  H   UNK A  0       17.786  13.995 -10.478  0.00  0.00    +0.147 HD
ATOM     38  N   UNK A  0       18.643  17.069  -8.118  0.00  0.00    -0.176 NA
BRANCH  31  39
ATOM     39  N   UNK A  0       20.098  18.905  -7.908  0.00  0.00    -0.329 N 
ATOM     40  H   UNK A  0       20.883  18.867  -7.269  0.00  0.00    +0.145 HD
ATOM     41  H   UNK A  0       19.657  19.807  -8.052  0.00  0.00    +0.145 HD
ENDBRANCH  31  39
ENDBRANCH  24  35
ENDBRANCH  22  24
ENDBRANCH   1  22
TORSDOF 12
ENDMDL
MODEL 8
REMARK VINA RESULT:      -7.9      2.418      3.913
REMARK  Name = 91443
REMARK                            x       y       z     vdW  Elec       q    Type
REMARK                         _______ _______ _______ _____ _____    ______ ____
ROOT
ATOM      1  C   UNK A  0       23.682  13.877 -12.445  0.00  0.00    +0.027 A 
ATOM      2  C   UNK A  0       24.955  14.428 -12.294  0.00  0.00    +0.023 A 
ATOM      3  C   UNK A  0       25.153  15.498 -11.422  0.00  0.00    +0.015 A 
ATOM      4  C   UNK A  0       24.078  16.016 -10.699  0.00  0.00    +0.037 A 
ATOM      5  C   UNK A  0       22.806  15.464 -10.850  0.00  0.00    +0.015 A 
ATOM      6  C   UNK A  0       22.608  14.395 -11.723  0.00  0.00    +0.023 A 
ENDROOT
BRANCH   4   7
ATOM      7  C   UNK A  0       24.285  17.131  -9.788  0.00  0.00    +0.245 C 
ATOM      8  N   GLU A  1       23.434  18.234  -9.932  0.00  0.00    -0.298 N 
ATOM      9  H   GLU A  1       22.760  18.254 -10.690  0.00  0.00    +0.150 HD
ATOM     10  O   UNK A  0       25.194  17.095  -8.942  0.00  0.00    -0.270 OA
BRANCH   8  11
ATOM     11  CA  GLU A  1       23.529  19.426  -9.120  0.00  0.00    +0.182 C 
BRANCH  11  12
ATOM     12  C   GLU A  1       24.956  19.926  -9.205  0.00  0.00    +0.325 C 
ATOM     13  OXT GLU A  1       25.468  20.436 -10.193  0.00  0.00    -0.249 OA
BRANCH  12  14
ATOM     14  O   GLU A  1       25.616  19.780  -8.026  0.00  0.00    -0.479 OA
ATOM     15  H   GLU A  1       26.469  19.310  -8.140  0.00  0.00    +0.295 HD
ENDBRANCH  12  14
ENDBRANCH  11  12
BRANCH  11  16
ATOM     16  CB  GLU A  1       23.034  19.206  -7.685  0.00  0.00    +0.045 C 
BRANCH  16  17
ATOM     17  CG  GLU A  1       21.576  19.597  -7.413  0.00  0.00    +0.123 C 
BRANCH  17  18
ATOM     18  CD  GLU A  1       20.573  18.546  -7.840  0.00  0.00    +0.305 C 
ATOM     19  OE2 GLU A  1       19.379  18.735  -8.020  0.00  0.00    -0.251 OA
BRANCH  18  20
ATOM     20  OE1 GLU A  1       21.155  17.324  -7.967  0.00  0.00    -0.481 OA
ATOM     21  HE1 GLU A  1       21.077  16.795  -7.144  0.00  0.00    +0.295 HD
ENDBRANCH  18  20
ENDBRANCH  17  18
ENDBRANCH  16  17
ENDBRANCH  11  16
ENDBRANCH   8  11
ENDBRANCH   4   7
BRANCH   1  22
ATOM     22  N   UNK A  0       23.486  12.811 -13.314  0.00  0.00    -0.342 N 
ATOM     23  H   UNK A  0       24.283  12.506 -13.862  0.00  0.00    +0.146 HD
BRANCH  22  24
ATOM     24  C   UNK A  0       22.237  12.111 -13.454  0.00  0.00    +0.125 C 
BRANCH  24  35
ATOM     25  O   UNK A  0       18.661  15.336 -13.718  0.00  0.00    -0.264 OA
ATOM     26  C   UNK A  0       18.268  14.180 -13.854  0.00  0.00    +0.297 A 
ATOM     27  C   UNK A  0       19.226  13.121 -14.321  0.00  0.00    +0.133 A 
ATOM     28  C   UNK A  0       18.786  11.853 -14.486  0.00  0.00    +0.125 A 
ATOM     29  N   UNK A  0       17.471  11.572 -14.197  0.00  0.00    -0.315 N 
ATOM     30  H   UNK A  0       17.167  10.613 -14.324  0.00  0.00    +0.170 HD
ATOM     31  C   UNK A  0       16.608  12.548 -13.761  0.00  0.00    +0.195 A 
ATOM     32  N   UNK A  0       19.690  10.904 -14.940  0.00  0.00    -0.327 N 
ATOM     33  H   UNK A  0       19.331   9.966 -15.080  0.00  0.00    +0.148 HD
ATOM     34  C   UNK A  0       20.990  11.253 -15.498  0.00  0.00    +0.126 C 
ATOM     35  C   UNK A  0       21.585  12.485 -14.785  0.00  0.00    +0.105 C 
ATOM     36  N   UNK A  0       20.538  13.475 -14.548  0.00  0.00    -0.331 N 
ATOM     37  H   UNK A  0       20.800  14.439 -14.370  0.00  0.00    +0.147 HD
ATOM     38  N   UNK A  0       16.962  13.796 -13.591  0.00  0.00    -0.176 NA
BRANCH  31  39
ATOM     39  N   UNK A  0       15.336  12.097 -13.520  0.00  0.00    -0.329 N 
ATOM     40  H   UNK A  0       14.529  12.577 -13.901  0.00  0.00    +0.145 HD
ATOM     41  H   UNK A  0       15.167  11.273 -12.955  0.00  0.00    +0.145 HD
ENDBRANCH  31  39
ENDBRANCH  24  35
ENDBRANCH  22  24
ENDBRANCH   1  22
TORSDOF 12
ENDMDL
MODEL 9
REMARK VINA RESULT:      -7.9      2.584     11.544
REMARK  Name = 91443
REMARK                            x       y       z     vdW  Elec       q    Type
REMARK                         _______ _______ _______ _____ _____    ______ ____
ROOT
ATOM      1  C   UNK A  0       19.765  14.778 -12.854  0.00  0.00    +0.027 A 
ATOM      2  C   UNK A  0       18.434  15.043 -13.176  0.00  0.00    +0.023 A 
ATOM      3  C   UNK A  0       17.678  14.090 -13.859  0.00  0.00    +0.015 A 
ATOM      4  C   UNK A  0       18.254  12.872 -14.220  0.00  0.00    +0.037 A 
ATOM      5  C   UNK A  0       19.585  12.607 -13.898  0.00  0.00    +0.015 A 
ATOM      6  C   UNK A  0       20.341  13.560 -13.215  0.00  0.00    +0.023 A 
ENDROOT
BRANCH   4   7
ATOM      7  C   UNK A  0       17.465  11.877 -14.931  0.00  0.00    +0.245 C 
ATOM      8  N   GLU A  1       17.469  10.577 -14.414  0.00  0.00    -0.298 N 
ATOM      9  H   GLU A  1       18.058  10.353 -13.619  0.00  0.00    +0.150 HD
ATOM     10  O   UNK A  0       16.841  12.186 -15.960  0.00  0.00    -0.270 OA
BRANCH   8  11
ATOM     11  CA  GLU A  1       16.755   9.475 -15.019  0.00  0.00    +0.182 C 
BRANCH  11  12
ATOM     12  C   GLU A  1       16.262   8.579 -13.901  0.00  0.00    +0.325 C 
ATOM     13  OXT GLU A  1       15.538   8.933 -12.980  0.00  0.00    -0.249 OA
BRANCH  12  14
ATOM     14  O   GLU A  1       16.690   7.298 -14.053  0.00  0.00    -0.479 OA
ATOM     15  H   GLU A  1       16.219   6.683 -13.452  0.00  0.00    +0.295 HD
ENDBRANCH  12  14
ENDBRANCH  11  12
BRANCH  11  16
ATOM     16  CB  GLU A  1       17.586   8.742 -16.080  0.00  0.00    +0.045 C 
BRANCH  16  17
ATOM     17  CG  GLU A  1       19.083   8.600 -15.775  0.00  0.00    +0.123 C 
BRANCH  17  18
ATOM     18  CD  GLU A  1       19.637   7.222 -16.070  0.00  0.00    +0.305 C 
ATOM     19  OE2 GLU A  1       20.256   6.907 -17.076  0.00  0.00    -0.251 OA
BRANCH  18  20
ATOM     20  OE1 GLU A  1       19.329   6.338 -15.085  0.00  0.00    -0.481 OA
ATOM     21  HE1 GLU A  1       19.905   6.453 -14.299  0.00  0.00    +0.295 HD
ENDBRANCH  18  20
ENDBRANCH  17  18
ENDBRANCH  16  17
ENDBRANCH  11  16
ENDBRANCH   8  11
ENDBRANCH   4   7
BRANCH   1  22
ATOM     22  N   UNK A  0       20.517  15.727 -12.174  0.00  0.00    -0.342 N 
ATOM     23  H   UNK A  0       21.430  15.956 -12.554  0.00  0.00    +0.146 HD
BRANCH  22  24
ATOM     24  C   UNK A  0       20.066  16.410 -10.992  0.00  0.00    +0.125 C 
BRANCH  24  35
ATOM     25  O   UNK A  0       20.549  18.932  -6.910  0.00  0.00    -0.264 OA
ATOM     26  C   UNK A  0       21.599  18.848  -7.541  0.00  0.00    +0.297 A 
ATOM     27  C   UNK A  0       21.792  17.717  -8.512  0.00  0.00    +0.133 A 
ATOM     28  C   UNK A  0       22.956  17.617  -9.194  0.00  0.00    +0.125 A 
ATOM     29  N   UNK A  0       23.920  18.576  -8.989  0.00  0.00    -0.315 N 
ATOM     30  H   UNK A  0       24.781  18.481  -9.516  0.00  0.00    +0.170 HD
ATOM     31  C   UNK A  0       23.726  19.611  -8.106  0.00  0.00    +0.195 A 
ATOM     32  N   UNK A  0       23.110  16.548 -10.064  0.00  0.00    -0.327 N 
ATOM     33  H   UNK A  0       24.001  16.481 -10.544  0.00  0.00    +0.148 HD
ATOM     34  C   UNK A  0       22.213  15.401 -10.076  0.00  0.00    +0.126 C 
ATOM     35  C   UNK A  0       20.764  15.829  -9.763  0.00  0.00    +0.105 C 
ATOM     36  N   UNK A  0       20.760  16.821  -8.692  0.00  0.00    -0.331 N 
ATOM     37  H   UNK A  0       19.905  16.981  -8.169  0.00  0.00    +0.147 HD
ATOM     38  N   UNK A  0       22.632  19.762  -7.405  0.00  0.00    -0.176 NA
BRANCH  31  39
ATOM     39  N   UNK A  0       24.787  20.475  -8.023  0.00  0.00    -0.329 N 
ATOM     40  H   UNK A  0       25.027  21.087  -8.795  0.00  0.00    +0.145 HD
ATOM     41  H   UNK A  0       25.362  20.527  -7.190  0.00  0.00    +0.145 HD
ENDBRANCH  31  39
ENDBRANCH  24  35
ENDBRANCH  22  24
ENDBRANCH   1  22
TORSDOF 12
ENDMDL
