MODEL 1
REMARK VINA RESULT:      -5.8      0.000      0.000
REMARK  Name = 1051
REMARK                            x       y       z     vdW  Elec       q    Type
REMARK                         _______ _______ _______ _____ _____    ______ ____
ROOT
ATOM      1  C   LIG    1       21.825  18.471  -7.958  0.00  0.00    +0.010 A 
ATOM      2  C   LIG    1       20.683  19.037  -7.414  0.00  0.00    +0.117 A 
ATOM      3  N   LIG    1       19.427  18.729  -7.806  0.00  0.00    -0.256 NA
ATOM      4  C   LIG    1       19.313  17.811  -8.792  0.00  0.00    +0.080 A 
ATOM      5  C   LIG    1       17.919  17.481  -9.216  0.00  0.00    +0.069 C 
ATOM      6  C   LIG    1       20.390  17.189  -9.401  0.00  0.00    +0.148 A 
ATOM      7  C   LIG    1       21.667  17.530  -8.971  0.00  0.00    +0.064 A 
ENDROOT
BRANCH   6   8
ATOM      8  O   LIG    1       20.203  16.273 -10.387  0.00  0.00    -0.504 OA
ATOM      9  H   LIG    1       20.854  15.557 -10.334  0.00  0.00    +0.292 HD
ENDBRANCH   6   8
BRANCH   7  10
ATOM     10  C   LIG    1       22.835  16.904  -9.580  0.00  0.00    +0.262 C 
ATOM     11  O   LIG    1       23.195  17.141 -10.734  0.00  0.00    -0.296 OA
ENDBRANCH   7  10
BRANCH   1  12
ATOM     12  C   LIG    1       23.167  18.878  -7.455  0.00  0.00    +0.210 C 
BRANCH  12  13
ATOM     13  O   LIG    1       23.576  20.073  -8.109  0.00  0.00    -0.282 OA
BRANCH  13  14
ATOM     14  P   LIG    1       25.012  20.089  -8.849  0.00  0.00    +0.473 P 
ATOM     15  O   LIG    1       25.838  21.319  -8.610  0.00  0.00    -0.228 OA
BRANCH  14  16
ATOM     16  O   LIG    1       25.687  18.706  -8.352  0.00  0.00    -0.303 OA
ATOM     17  H   LIG    1       26.639  18.698  -8.120  0.00  0.00    +0.222 HD
ENDBRANCH  14  16
BRANCH  14  18
ATOM     18  O   LIG    1       24.651  19.791 -10.398  0.00  0.00    -0.303 OA
ATOM     19  H   LIG    1       24.372  20.536 -10.972  0.00  0.00    +0.222 HD
ENDBRANCH  14  18
ENDBRANCH  13  14
ENDBRANCH  12  13
ENDBRANCH   1  12
TORSDOF 7
ENDMDL
MODEL 2
REMARK VINA RESULT:      -5.6      2.241      4.410
REMARK  Name = 1051
REMARK                            x       y       z     vdW  Elec       q    Type
REMARK                         _______ _______ _______ _____ _____    ______ ____
ROOT
ATOM      1  C   LIG    1       21.270  17.946  -9.448  0.00  0.00    +0.010 A 
ATOM      2  C   LIG    1       20.237  17.999  -8.525  0.00  0.00    +0.117 A 
ATOM      3  N   LIG    1       20.308  18.662  -7.349  0.00  0.00    -0.256 NA
ATOM      4  C   LIG    1       21.471  19.299  -7.087  0.00  0.00    +0.080 A 
ATOM      5  C   LIG    1       21.535  20.027  -5.784  0.00  0.00    +0.069 C 
ATOM      6  C   LIG    1       22.561  19.306  -7.942  0.00  0.00    +0.148 A 
ATOM      7  C   LIG    1       22.451  18.615  -9.143  0.00  0.00    +0.064 A 
ENDROOT
BRANCH   6   8
ATOM      8  O   LIG    1       23.701  19.970  -7.615  0.00  0.00    -0.504 OA
ATOM      9  H   LIG    1       23.752  20.139  -6.662  0.00  0.00    +0.292 HD
ENDBRANCH   6   8
BRANCH   7  10
ATOM     10  C   LIG    1       23.571  18.591 -10.077  0.00  0.00    +0.262 C 
ATOM     11  O   LIG    1       24.580  17.909  -9.894  0.00  0.00    -0.296 OA
ENDBRANCH   7  10
BRANCH   1  12
ATOM     12  C   LIG    1       21.093  17.188 -10.718  0.00  0.00    +0.210 C 
BRANCH  12  13
ATOM     13  O   LIG    1       21.109  15.792 -10.443  0.00  0.00    -0.282 OA
BRANCH  13  14
ATOM     14  P   LIG    1       22.408  14.939 -10.884  0.00  0.00    +0.473 P 
ATOM     15  O   LIG    1       23.003  15.323 -12.207  0.00  0.00    -0.228 OA
BRANCH  14  16
ATOM     16  O   LIG    1       23.397  15.111  -9.615  0.00  0.00    -0.303 OA
ATOM     17  H   LIG    1       23.057  15.544  -8.804  0.00  0.00    +0.222 HD
ENDBRANCH  14  16
BRANCH  14  18
ATOM     18  O   LIG    1       21.918  13.402 -10.767  0.00  0.00    -0.303 OA
ATOM     19  H   LIG    1       21.110  13.200 -10.247  0.00  0.00    +0.222 HD
ENDBRANCH  14  18
ENDBRANCH  13  14
ENDBRANCH  12  13
ENDBRANCH   1  12
TORSDOF 7
ENDMDL
MODEL 3
REMARK VINA RESULT:      -5.4      2.084      2.993
REMARK  Name = 1051
REMARK                            x       y       z     vdW  Elec       q    Type
REMARK                         _______ _______ _______ _____ _____    ______ ____
ROOT
ATOM      1  C   LIG    1       21.002  18.102  -9.067  0.00  0.00    +0.010 A 
ATOM      2  C   LIG    1       21.245  17.513 -10.298  0.00  0.00    +0.117 A 
ATOM      3  N   LIG    1       20.438  16.589 -10.866  0.00  0.00    -0.256 NA
ATOM      4  C   LIG    1       19.336  16.240 -10.163  0.00  0.00    +0.080 A 
ATOM      5  C   LIG    1       18.453  15.219 -10.803  0.00  0.00    +0.069 C 
ATOM      6  C   LIG    1       19.005  16.770  -8.927  0.00  0.00    +0.148 A 
ATOM      7  C   LIG    1       19.858  17.718  -8.375  0.00  0.00    +0.064 A 
ENDROOT
BRANCH   6   8
ATOM      8  O   LIG    1       17.879  16.374  -8.276  0.00  0.00    -0.504 OA
ATOM      9  H   LIG    1       17.571  15.511  -8.593  0.00  0.00    +0.292 HD
ENDBRANCH   6   8
BRANCH   7  10
ATOM     10  C   LIG    1       19.554  18.305  -7.075  0.00  0.00    +0.262 C 
ATOM     11  O   LIG    1       19.226  17.632  -6.097  0.00  0.00    -0.296 OA
ENDBRANCH   7  10
BRANCH   1  12
ATOM     12  C   LIG    1       21.955  19.112  -8.527  0.00  0.00    +0.210 C 
BRANCH  12  13
ATOM     13  O   LIG    1       22.916  19.438  -9.523  0.00  0.00    -0.282 OA
BRANCH  13  14
ATOM     14  P   LIG    1       24.475  19.476  -9.102  0.00  0.00    +0.473 P 
ATOM     15  O   LIG    1       25.103  18.134  -8.864  0.00  0.00    -0.228 OA
BRANCH  14  16
ATOM     16  O   LIG    1       25.146  20.343 -10.290  0.00  0.00    -0.303 OA
ATOM     17  H   LIG    1       25.918  19.974 -10.770  0.00  0.00    +0.222 HD
ENDBRANCH  14  16
BRANCH  14  18
ATOM     18  O   LIG    1       24.508  20.487  -7.839  0.00  0.00    -0.303 OA
ATOM     19  H   LIG    1       23.695  20.602  -7.303  0.00  0.00    +0.222 HD
ENDBRANCH  14  18
ENDBRANCH  13  14
ENDBRANCH  12  13
ENDBRANCH   1  12
TORSDOF 7
ENDMDL
MODEL 4
REMARK VINA RESULT:      -5.3      2.523      4.974
REMARK  Name = 1051
REMARK                            x       y       z     vdW  Elec       q    Type
REMARK                         _______ _______ _______ _____ _____    ______ ____
ROOT
ATOM      1  C   LIG    1       21.626  18.361  -9.737  0.00  0.00    +0.010 A 
ATOM      2  C   LIG    1       20.512  18.099  -8.955  0.00  0.00    +0.117 A 
ATOM      3  N   LIG    1       20.358  18.540  -7.687  0.00  0.00    -0.256 NA
ATOM      4  C   LIG    1       21.372  19.276  -7.179  0.00  0.00    +0.080 A 
ATOM      5  C   LIG    1       21.188  19.757  -5.777  0.00  0.00    +0.069 C 
ATOM      6  C   LIG    1       22.525  19.593  -7.877  0.00  0.00    +0.148 A 
ATOM      7  C   LIG    1       22.648  19.123  -9.180  0.00  0.00    +0.064 A 
ENDROOT
BRANCH   6   8
ATOM      8  O   LIG    1       23.506  20.340  -7.305  0.00  0.00    -0.504 OA
ATOM      9  H   LIG    1       23.171  21.202  -7.014  0.00  0.00    +0.292 HD
ENDBRANCH   6   8
BRANCH   7  10
ATOM     10  C   LIG    1       23.844  19.428  -9.956  0.00  0.00    +0.262 C 
ATOM     11  O   LIG    1       24.982  19.174  -9.560  0.00  0.00    -0.296 OA
ENDBRANCH   7  10
BRANCH   1  12
ATOM     12  C   LIG    1       21.700  17.829 -11.127  0.00  0.00    +0.210 C 
BRANCH  12  13
ATOM     13  O   LIG    1       21.414  16.436 -11.117  0.00  0.00    -0.282 OA
BRANCH  13  14
ATOM     14  P   LIG    1       20.527  15.827 -12.322  0.00  0.00    +0.473 P 
ATOM     15  O   LIG    1       19.074  15.626 -12.004  0.00  0.00    -0.228 OA
BRANCH  14  16
ATOM     16  O   LIG    1       20.824  16.851 -13.538  0.00  0.00    -0.303 OA
ATOM     17  H   LIG    1       20.070  17.226 -14.038  0.00  0.00    +0.222 HD
ENDBRANCH  14  16
BRANCH  14  18
ATOM     18  O   LIG    1       21.331  14.491 -12.755  0.00  0.00    -0.303 OA
ATOM     19  H   LIG    1       21.499  14.327 -13.707  0.00  0.00    +0.222 HD
ENDBRANCH  14  18
ENDBRANCH  13  14
ENDBRANCH  12  13
ENDBRANCH   1  12
TORSDOF 7
ENDMDL
MODEL 5
REMARK VINA RESULT:      -5.2      3.060      5.502
REMARK  Name = 1051
REMARK                            x       y       z     vdW  Elec       q    Type
REMARK                         _______ _______ _______ _____ _____    ______ ____
ROOT
ATOM      1  C   LIG    1       22.763  17.387  -9.221  0.00  0.00    +0.010 A 
ATOM      2  C   LIG    1       23.995  17.541  -9.837  0.00  0.00    +0.117 A 
ATOM      3  N   LIG    1       24.832  18.576  -9.604  0.00  0.00    -0.256 NA
ATOM      4  C   LIG    1       24.412  19.500  -8.712  0.00  0.00    +0.080 A 
ATOM      5  C   LIG    1       25.348  20.638  -8.463  0.00  0.00    +0.069 C 
ATOM      6  C   LIG    1       23.200  19.438  -8.043  0.00  0.00    +0.148 A 
ATOM      7  C   LIG    1       22.365  18.358  -8.308  0.00  0.00    +0.064 A 
ENDROOT
BRANCH   6   8
ATOM      8  O   LIG    1       22.841  20.402  -7.156  0.00  0.00    -0.504 OA
ATOM      9  H   LIG    1       22.007  20.826  -7.411  0.00  0.00    +0.292 HD
ENDBRANCH   6   8
BRANCH   7  10
ATOM     10  C   LIG    1       21.078  18.247  -7.631  0.00  0.00    +0.262 C 
ATOM     11  O   LIG    1       20.181  19.080  -7.760  0.00  0.00    -0.296 OA
ENDBRANCH   7  10
BRANCH   1  12
ATOM     12  C   LIG    1       21.912  16.208  -9.547  0.00  0.00    +0.210 C 
BRANCH  12  13
ATOM     13  O   LIG    1       21.940  15.977 -10.950  0.00  0.00    -0.282 OA
BRANCH  13  14
ATOM     14  P   LIG    1       22.207  14.472 -11.473  0.00  0.00    +0.473 P 
ATOM     15  O   LIG    1       21.613  14.149 -12.813  0.00  0.00    -0.228 OA
BRANCH  14  16
ATOM     16  O   LIG    1       23.817  14.345 -11.392  0.00  0.00    -0.303 OA
ATOM     17  H   LIG    1       24.218  13.874 -10.631  0.00  0.00    +0.222 HD
ENDBRANCH  14  16
BRANCH  14  18
ATOM     18  O   LIG    1       21.698  13.543 -10.250  0.00  0.00    -0.303 OA
ATOM     19  H   LIG    1       22.055  12.633 -10.165  0.00  0.00    +0.222 HD
ENDBRANCH  14  18
ENDBRANCH  13  14
ENDBRANCH  12  13
ENDBRANCH   1  12
TORSDOF 7
ENDMDL
MODEL 6
REMARK VINA RESULT:      -5.2      3.401      4.911
REMARK  Name = 1051
REMARK                            x       y       z     vdW  Elec       q    Type
REMARK                         _______ _______ _______ _____ _____    ______ ____
ROOT
ATOM      1  C   LIG    1       20.954  17.550  -9.570  0.00  0.00    +0.010 A 
ATOM      2  C   LIG    1       22.166  18.223  -9.564  0.00  0.00    +0.117 A 
ATOM      3  N   LIG    1       22.535  19.104  -8.608  0.00  0.00    -0.256 NA
ATOM      4  C   LIG    1       21.645  19.321  -7.614  0.00  0.00    +0.080 A 
ATOM      5  C   LIG    1       22.066  20.298  -6.565  0.00  0.00    +0.069 C 
ATOM      6  C   LIG    1       20.410  18.700  -7.530  0.00  0.00    +0.148 A 
ATOM      7  C   LIG    1       20.065  17.799  -8.531  0.00  0.00    +0.064 A 
ENDROOT
BRANCH   6   8
ATOM      8  O   LIG    1       19.563  18.964  -6.500  0.00  0.00    -0.504 OA
ATOM      9  H   LIG    1       19.409  19.916  -6.403  0.00  0.00    +0.292 HD
ENDBRANCH   6   8
BRANCH   7  10
ATOM     10  C   LIG    1       18.775  17.120  -8.488  0.00  0.00    +0.262 C 
ATOM     11  O   LIG    1       18.423  16.411  -7.545  0.00  0.00    -0.296 OA
ENDBRANCH   7  10
BRANCH   1  12
ATOM     12  C   LIG    1       20.641  16.596 -10.671  0.00  0.00    +0.210 C 
BRANCH  12  13
ATOM     13  O   LIG    1       21.169  15.314 -10.353  0.00  0.00    -0.282 OA
BRANCH  13  14
ATOM     14  P   LIG    1       22.298  14.687 -11.324  0.00  0.00    +0.473 P 
ATOM     15  O   LIG    1       22.288  15.209 -12.731  0.00  0.00    -0.228 OA
BRANCH  14  16
ATOM     16  O   LIG    1       23.666  14.957 -10.505  0.00  0.00    -0.303 OA
ATOM     17  H   LIG    1       23.610  15.293  -9.586  0.00  0.00    +0.222 HD
ENDBRANCH  14  16
BRANCH  14  18
ATOM     18  O   LIG    1       22.086  13.090 -11.179  0.00  0.00    -0.303 OA
ATOM     19  H   LIG    1       21.175  12.739 -11.082  0.00  0.00    +0.222 HD
ENDBRANCH  14  18
ENDBRANCH  13  14
ENDBRANCH  12  13
ENDBRANCH   1  12
TORSDOF 7
ENDMDL
MODEL 7
REMARK VINA RESULT:      -5.1     17.468     19.307
REMARK  Name = 1051
REMARK                            x       y       z     vdW  Elec       q    Type
REMARK                         _______ _______ _______ _____ _____    ______ ____
ROOT
ATOM      1  C   LIG    1        6.945   8.934 -14.179  0.00  0.00    +0.010 A 
ATOM      2  C   LIG    1        6.955   7.582 -14.482  0.00  0.00    +0.117 A 
ATOM      3  N   LIG    1        7.568   6.643 -13.728  0.00  0.00    -0.256 NA
ATOM      4  C   LIG    1        8.203   7.083 -12.618  0.00  0.00    +0.080 A 
ATOM      5  C   LIG    1        8.875   6.035 -11.794  0.00  0.00    +0.069 C 
ATOM      6  C   LIG    1        8.251   8.411 -12.228  0.00  0.00    +0.148 A 
ATOM      7  C   LIG    1        7.609   9.349 -13.028  0.00  0.00    +0.064 A 
ENDROOT
BRANCH   6   8
ATOM      8  O   LIG    1        8.906   8.785 -11.097  0.00  0.00    -0.504 OA
ATOM      9  H   LIG    1        8.562   9.620 -10.747  0.00  0.00    +0.292 HD
ENDBRANCH   6   8
BRANCH   7  10
ATOM     10  C   LIG    1        7.631  10.760 -12.662  0.00  0.00    +0.262 C 
ATOM     11  O   LIG    1        7.121  11.191 -11.627  0.00  0.00    -0.296 OA
ENDBRANCH   7  10
BRANCH   1  12
ATOM     12  C   LIG    1        6.240   9.892 -15.076  0.00  0.00    +0.210 C 
BRANCH  12  13
ATOM     13  O   LIG    1        4.837   9.798 -14.861  0.00  0.00    -0.282 OA
BRANCH  13  14
ATOM     14  P   LIG    1        4.134  10.889 -13.898  0.00  0.00    +0.473 P 
ATOM     15  O   LIG    1        4.711  12.272 -13.976  0.00  0.00    -0.228 OA
BRANCH  14  16
ATOM     16  O   LIG    1        2.574  10.775 -14.308  0.00  0.00    -0.303 OA
ATOM     17  H   LIG    1        2.077  11.594 -14.517  0.00  0.00    +0.222 HD
ENDBRANCH  14  16
BRANCH  14  18
ATOM     18  O   LIG    1        4.186  10.201 -12.435  0.00  0.00    -0.303 OA
ATOM     19  H   LIG    1        4.848   9.497 -12.265  0.00  0.00    +0.222 HD
ENDBRANCH  14  18
ENDBRANCH  13  14
ENDBRANCH  12  13
ENDBRANCH   1  12
TORSDOF 7
ENDMDL
MODEL 8
REMARK VINA RESULT:      -5.0      2.963      4.355
REMARK  Name = 1051
REMARK                            x       y       z     vdW  Elec       q    Type
REMARK                         _______ _______ _______ _____ _____    ______ ____
ROOT
ATOM      1  C   LIG    1       23.127  17.197  -9.317  0.00  0.00    +0.010 A 
ATOM      2  C   LIG    1       24.080  18.101  -8.876  0.00  0.00    +0.117 A 
ATOM      3  N   LIG    1       23.811  19.146  -8.062  0.00  0.00    -0.256 NA
ATOM      4  C   LIG    1       22.524  19.291  -7.675  0.00  0.00    +0.080 A 
ATOM      5  C   LIG    1       22.241  20.449  -6.775  0.00  0.00    +0.069 C 
ATOM      6  C   LIG    1       21.499  18.443  -8.060  0.00  0.00    +0.148 A 
ATOM      7  C   LIG    1       21.813  17.378  -8.897  0.00  0.00    +0.064 A 
ENDROOT
BRANCH   6   8
ATOM      8  O   LIG    1       20.225  18.646  -7.631  0.00  0.00    -0.504 OA
ATOM      9  H   LIG    1       20.201  18.880  -6.690  0.00  0.00    +0.292 HD
ENDBRANCH   6   8
BRANCH   7  10
ATOM     10  C   LIG    1       20.769  16.458  -9.332  0.00  0.00    +0.262 C 
ATOM     11  O   LIG    1       19.745  16.830  -9.905  0.00  0.00    -0.296 OA
ENDBRANCH   7  10
BRANCH   1  12
ATOM     12  C   LIG    1       23.526  16.077 -10.215  0.00  0.00    +0.210 C 
BRANCH  12  13
ATOM     13  O   LIG    1       24.852  16.292 -10.682  0.00  0.00    -0.282 OA
BRANCH  13  14
ATOM     14  P   LIG    1       25.418  15.332 -11.851  0.00  0.00    +0.473 P 
ATOM     15  O   LIG    1       25.195  15.830 -13.249  0.00  0.00    -0.228 OA
BRANCH  14  16
ATOM     16  O   LIG    1       26.969  15.139 -11.435  0.00  0.00    -0.303 OA
ATOM     17  H   LIG    1       27.194  14.505 -10.722  0.00  0.00    +0.222 HD
ENDBRANCH  14  16
BRANCH  14  18
ATOM     18  O   LIG    1       24.761  13.891 -11.517  0.00  0.00    -0.303 OA
ATOM     19  H   LIG    1       24.773  13.568 -10.591  0.00  0.00    +0.222 HD
ENDBRANCH  14  18
ENDBRANCH  13  14
ENDBRANCH  12  13
ENDBRANCH   1  12
TORSDOF 7
ENDMDL
MODEL 9
REMARK VINA RESULT:      -4.9     16.841     19.632
REMARK  Name = 1051
REMARK                            x       y       z     vdW  Elec       q    Type
REMARK                         _______ _______ _______ _____ _____    ______ ____
ROOT
ATOM      1  C   LIG    1        5.725  11.455 -13.925  0.00  0.00    +0.010 A 
ATOM      2  C   LIG    1        6.798  11.149 -13.104  0.00  0.00    +0.117 A 
ATOM      3  N   LIG    1        8.076  11.500 -13.368  0.00  0.00    -0.256 NA
ATOM      4  C   LIG    1        8.286  12.191 -14.511  0.00  0.00    +0.080 A 
ATOM      5  C   LIG    1        9.702  12.573 -14.790  0.00  0.00    +0.069 C 
ATOM      6  C   LIG    1        7.282  12.546 -15.397  0.00  0.00    +0.148 A 
ATOM      7  C   LIG    1        5.980  12.167 -15.092  0.00  0.00    +0.064 A 
ENDROOT
BRANCH   6   8
ATOM      8  O   LIG    1        7.564  13.243 -16.530  0.00  0.00    -0.504 OA
ATOM      9  H   LIG    1        8.440  13.016 -16.877  0.00  0.00    +0.292 HD
ENDBRANCH   6   8
BRANCH   7  10
ATOM     10  C   LIG    1        4.888  12.516 -15.994  0.00  0.00    +0.262 C 
ATOM     11  O   LIG    1        4.699  13.661 -16.404  0.00  0.00    -0.296 OA
ENDBRANCH   7  10
BRANCH   1  12
ATOM     12  C   LIG    1        4.351  11.021 -13.544  0.00  0.00    +0.210 C 
BRANCH  12  13
ATOM     13  O   LIG    1        4.432   9.900 -12.672  0.00  0.00    -0.282 OA
BRANCH  13  14
ATOM     14  P   LIG    1        3.571   8.582 -13.036  0.00  0.00    +0.473 P 
ATOM     15  O   LIG    1        3.851   7.383 -12.180  0.00  0.00    -0.228 OA
BRANCH  14  16
ATOM     16  O   LIG    1        2.048   9.123 -12.978  0.00  0.00    -0.303 OA
ATOM     17  H   LIG    1        1.375   8.595 -12.499  0.00  0.00    +0.222 HD
ENDBRANCH  14  16
BRANCH  14  18
ATOM     18  O   LIG    1        3.832   8.377 -14.619  0.00  0.00    -0.303 OA
ATOM     19  H   LIG    1        4.756   8.295 -14.941  0.00  0.00    +0.222 HD
ENDBRANCH  14  18
ENDBRANCH  13  14
ENDBRANCH  12  13
ENDBRANCH   1  12
TORSDOF 7
ENDMDL
