MODEL 1
REMARK VINA RESULT:     -10.1      0.000      0.000
REMARK  Name = 44468761
REMARK                            x       y       z     vdW  Elec       q    Type
REMARK                         _______ _______ _______ _____ _____    ______ ____
ROOT
ATOM      1  O   LIG    1       20.275  43.213  53.012  0.00  0.00    -0.354 OA
ATOM      2  C   LIG    1       20.002  43.511  52.098  0.00  0.00    +0.176 C 
ATOM      3  C   LIG    1       19.843  42.695  51.542  0.00  0.00    +0.180 C 
ATOM      4  C   LIG    1       20.018  41.892  52.112  0.00  0.00    +0.128 C 
ATOM      5  C   LIG    1       20.115  40.946  52.417  0.00  0.00    +0.047 C 
ATOM      6  C   LIG    1       20.285  42.213  53.021  0.00  0.00    +0.165 C 
ENDROOT
BRANCH   6   7
ATOM      7  C   LIG    1       20.383  41.265  53.326  0.00  0.00    +0.081 A 
ATOM      8  C   LIG    1       21.135  40.655  53.102  0.00  0.00    +0.028 A 
ATOM      9  C   LIG    1       20.964  39.780  53.542  0.00  0.00    +0.033 A 
ATOM     10  C   LIG    1       20.106  39.846  54.039  0.00  0.00    +0.105 A 
ATOM     11  C   LIG    1       19.601  39.189  54.598  0.00  0.00    +0.144 A 
ATOM     12  N   LIG    1       18.736  39.454  55.023  0.00  0.00    -0.217 NA
ATOM     13  C   LIG    1       18.375  40.376  54.889  0.00  0.00    +0.245 A 
ATOM     14  N   LIG    1       18.879  41.034  54.329  0.00  0.00    -0.154 NA
ATOM     15  N   LIG    1       19.745  40.769  53.904  0.00  0.00    -0.229 N 
BRANCH  11  16
ATOM     16  N   LIG    1       19.962  38.266  54.733  0.00  0.00    -0.341 N 
ATOM     17  H   LIG    1       20.189  37.948  54.251  0.00  0.00    +0.144 HD
ATOM     18  H   LIG    1       19.960  38.011  55.298  0.00  0.00    +0.144 HD
ENDBRANCH  11  16
ENDBRANCH   6   7
BRANCH   4  19
ATOM     19  O   LIG    1       19.794  41.296  51.341  0.00  0.00    -0.383 OA
ATOM     20  H   LIG    1       20.247  41.042  51.003  0.00  0.00    +0.210 HD
ENDBRANCH   4  19
BRANCH   3  21
ATOM     21  O   LIG    1       19.558  42.684  50.583  0.00  0.00    -0.386 OA
ATOM     22  H   LIG    1       19.218  42.212  50.366  0.00  0.00    +0.210 HD
ENDBRANCH   3  21
BRANCH   2  23
ATOM     23  C   LIG    1       19.904  44.458  51.793  0.00  0.00    +0.190 C 
BRANCH  23  24
ATOM     24  O   LIG    1       19.105  44.992  52.070  0.00  0.00    -0.392 OA
ATOM     25  H   LIG    1       19.121  45.612  52.041  0.00  0.00    +0.210 HD
ENDBRANCH  23  24
ENDBRANCH   2  23
BRANCH   6  26
ATOM     26  C   LIG    1       20.570  42.224  53.980  0.00  0.00    +0.200 C 
BRANCH  26  27
ATOM     27  O   LIG    1       20.856  43.082  54.406  0.00  0.00    -0.392 OA
ATOM     28  H   LIG    1       21.313  43.082  54.826  0.00  0.00    +0.210 HD
ENDBRANCH  26  27
ENDBRANCH   6  26
TORSDOF 8
ENDMDL
MODEL 2
REMARK VINA RESULT:      -9.5      1.169      2.357
REMARK  Name = 44468761
REMARK                            x       y       z     vdW  Elec       q    Type
REMARK                         _______ _______ _______ _____ _____    ______ ____
ROOT
ATOM      1  O   LIG    1       20.330  42.318  52.673  0.00  0.00    -0.354 OA
ATOM      2  C   LIG    1       20.814  43.094  53.077  0.00  0.00    +0.176 C 
ATOM      3  C   LIG    1       20.724  43.030  54.071  0.00  0.00    +0.180 C 
ATOM      4  C   LIG    1       20.183  42.216  54.282  0.00  0.00    +0.128 C 
ATOM      5  C   LIG    1       19.694  41.503  54.783  0.00  0.00    +0.047 C 
ATOM      6  C   LIG    1       19.940  41.776  53.417  0.00  0.00    +0.165 C 
ENDROOT
BRANCH   6   7
ATOM      7  C   LIG    1       19.450  41.062  53.920  0.00  0.00    +0.081 A 
ATOM      8  C   LIG    1       18.582  41.172  54.393  0.00  0.00    +0.028 A 
ATOM      9  C   LIG    1       18.340  40.298  54.799  0.00  0.00    +0.033 A 
ATOM     10  C   LIG    1       19.057  39.645  54.579  0.00  0.00    +0.105 A 
ATOM     11  C   LIG    1       19.175  38.678  54.804  0.00  0.00    +0.144 A 
ATOM     12  N   LIG    1       19.984  38.186  54.481  0.00  0.00    -0.217 NA
ATOM     13  C   LIG    1       20.674  38.661  53.935  0.00  0.00    +0.245 A 
ATOM     14  N   LIG    1       20.555  39.628  53.710  0.00  0.00    -0.154 NA
ATOM     15  N   LIG    1       19.746  40.120  54.033  0.00  0.00    -0.229 N 
BRANCH  11  16
ATOM     16  N   LIG    1       18.486  38.203  55.350  0.00  0.00    -0.341 N 
ATOM     17  H   LIG    1       17.930  38.076  55.106  0.00  0.00    +0.144 HD
ATOM     18  H   LIG    1       18.613  38.036  55.934  0.00  0.00    +0.144 HD
ENDBRANCH  11  16
ENDBRANCH   6   7
BRANCH   4  19
ATOM     19  O   LIG    1       20.264  42.415  55.259  0.00  0.00    -0.383 OA
ATOM     20  H   LIG    1       20.343  42.998  55.451  0.00  0.00    +0.210 HD
ENDBRANCH   4  19
BRANCH   3  21
ATOM     21  O   LIG    1       21.107  43.670  54.738  0.00  0.00    -0.386 OA
ATOM     22  H   LIG    1       21.720  43.766  54.759  0.00  0.00    +0.210 HD
ENDBRANCH   3  21
BRANCH   2  23
ATOM     23  C   LIG    1       21.303  43.807  52.576  0.00  0.00    +0.190 C 
BRANCH  23  24
ATOM     24  O   LIG    1       20.907  44.193  51.742  0.00  0.00    -0.392 OA
ATOM     25  H   LIG    1       20.676  43.817  51.307  0.00  0.00    +0.210 HD
ENDBRANCH  23  24
ENDBRANCH   2  23
BRANCH   6  26
ATOM     26  C   LIG    1       19.556  41.136  52.751  0.00  0.00    +0.200 C 
BRANCH  26  27
ATOM     27  O   LIG    1       19.537  41.378  51.781  0.00  0.00    -0.392 OA
ATOM     28  H   LIG    1       20.047  41.309  51.434  0.00  0.00    +0.210 HD
ENDBRANCH  26  27
ENDBRANCH   6  26
TORSDOF 8
ENDMDL
MODEL 3
REMARK VINA RESULT:      -9.0      2.306      4.240
REMARK  Name = 44468761
REMARK                            x       y       z     vdW  Elec       q    Type
REMARK                         _______ _______ _______ _____ _____    ______ ____
ROOT
ATOM      1  O   LIG    1       20.427  39.731  53.760  0.00  0.00    -0.354 OA
ATOM      2  C   LIG    1       19.692  39.333  54.307  0.00  0.00    +0.176 C 
ATOM      3  C   LIG    1       19.072  40.071  54.576  0.00  0.00    +0.180 C 
ATOM      4  C   LIG    1       19.426  40.926  54.196  0.00  0.00    +0.128 C 
ATOM      5  C   LIG    1       19.526  41.891  53.959  0.00  0.00    +0.047 C 
ATOM      6  C   LIG    1       20.263  40.715  53.691  0.00  0.00    +0.165 C 
ENDROOT
BRANCH   6   7
ATOM      7  C   LIG    1       20.363  41.682  53.455  0.00  0.00    +0.081 A 
ATOM      8  C   LIG    1       20.707  42.397  54.054  0.00  0.00    +0.028 A 
ATOM      9  C   LIG    1       20.693  43.254  53.551  0.00  0.00    +0.033 A 
ATOM     10  C   LIG    1       20.339  43.073  52.640  0.00  0.00    +0.105 A 
ATOM     11  C   LIG    1       20.176  43.668  51.853  0.00  0.00    +0.144 A 
ATOM     12  N   LIG    1       19.807  43.286  51.006  0.00  0.00    -0.217 NA
ATOM     13  C   LIG    1       19.602  42.309  50.946  0.00  0.00    +0.245 A 
ATOM     14  N   LIG    1       19.766  41.714  51.733  0.00  0.00    -0.154 NA
ATOM     15  N   LIG    1       20.134  42.096  52.580  0.00  0.00    -0.229 N 
BRANCH  11  16
ATOM     16  N   LIG    1       20.381  44.645  51.913  0.00  0.00    -0.341 N 
ATOM     17  H   LIG    1       20.970  44.837  51.945  0.00  0.00    +0.144 HD
ATOM     18  H   LIG    1       19.919  45.059  51.919  0.00  0.00    +0.144 HD
ENDBRANCH  11  16
ENDBRANCH   6   7
BRANCH   4  19
ATOM     19  O   LIG    1       18.660  41.423  54.603  0.00  0.00    -0.383 OA
ATOM     20  H   LIG    1       18.265  41.130  54.979  0.00  0.00    +0.210 HD
ENDBRANCH   4  19
BRANCH   3  21
ATOM     21  O   LIG    1       18.245  39.972  55.129  0.00  0.00    -0.386 OA
ATOM     22  H   LIG    1       17.751  40.329  55.015  0.00  0.00    +0.210 HD
ENDBRANCH   3  21
BRANCH   2  23
ATOM     23  C   LIG    1       19.592  38.367  54.543  0.00  0.00    +0.190 C 
BRANCH  23  24
ATOM     24  O   LIG    1       20.387  37.843  54.850  0.00  0.00    -0.392 OA
ATOM     25  H   LIG    1       20.353  37.225  54.890  0.00  0.00    +0.210 HD
ENDBRANCH  23  24
ENDBRANCH   2  23
BRANCH   6  26
ATOM     26  C   LIG    1       21.091  40.815  53.137  0.00  0.00    +0.200 C 
BRANCH  26  27
ATOM     27  O   LIG    1       21.715  40.041  53.029  0.00  0.00    -0.392 OA
ATOM     28  H   LIG    1       21.527  39.534  52.725  0.00  0.00    +0.210 HD
ENDBRANCH  26  27
ENDBRANCH   6  26
TORSDOF 8
ENDMDL
MODEL 4
REMARK VINA RESULT:      -7.9      2.263      4.017
REMARK  Name = 44468761
REMARK                            x       y       z     vdW  Elec       q    Type
REMARK                         _______ _______ _______ _____ _____    ______ ____
ROOT
ATOM      1  O   LIG    1       19.298  40.214  54.552  0.00  0.00    -0.354 OA
ATOM      2  C   LIG    1       19.420  39.259  54.282  0.00  0.00    +0.176 C 
ATOM      3  C   LIG    1       20.165  39.219  53.615  0.00  0.00    +0.180 C 
ATOM      4  C   LIG    1       20.503  40.149  53.473  0.00  0.00    +0.128 C 
ATOM      5  C   LIG    1       21.032  40.927  53.136  0.00  0.00    +0.047 C 
ATOM      6  C   LIG    1       19.967  40.764  54.053  0.00  0.00    +0.165 C 
ENDROOT
BRANCH   6   7
ATOM      7  C   LIG    1       20.497  41.542  53.715  0.00  0.00    +0.081 A 
ATOM      8  C   LIG    1       21.377  41.846  54.066  0.00  0.00    +0.028 A 
ATOM      9  C   LIG    1       21.662  42.639  53.539  0.00  0.00    +0.033 A 
ATOM     10  C   LIG    1       20.960  42.829  52.861  0.00  0.00    +0.105 A 
ATOM     11  C   LIG    1       20.881  43.534  52.156  0.00  0.00    +0.144 A 
ATOM     12  N   LIG    1       20.079  43.557  51.560  0.00  0.00    -0.217 NA
ATOM     13  C   LIG    1       19.355  42.875  51.670  0.00  0.00    +0.245 A 
ATOM     14  N   LIG    1       19.434  42.171  52.375  0.00  0.00    -0.154 NA
ATOM     15  N   LIG    1       20.237  42.148  52.971  0.00  0.00    -0.229 N 
BRANCH  11  16
ATOM     16  N   LIG    1       21.605  44.215  52.047  0.00  0.00    -0.341 N 
ATOM     17  H   LIG    1       21.719  44.621  52.501  0.00  0.00    +0.144 HD
ATOM     18  H   LIG    1       21.939  44.231  51.525  0.00  0.00    +0.144 HD
ENDBRANCH  11  16
ENDBRANCH   6   7
BRANCH   4  19
ATOM     19  O   LIG    1       21.176  39.804  52.819  0.00  0.00    -0.383 OA
ATOM     20  H   LIG    1       21.613  40.182  52.595  0.00  0.00    +0.210 HD
ENDBRANCH   4  19
BRANCH   3  21
ATOM     21  O   LIG    1       20.510  38.394  53.169  0.00  0.00    -0.386 OA
ATOM     22  H   LIG    1       20.764  38.430  52.604  0.00  0.00    +0.210 HD
ENDBRANCH   3  21
BRANCH   2  23
ATOM     23  C   LIG    1       18.891  38.481  54.619  0.00  0.00    +0.190 C 
BRANCH  23  24
ATOM     24  O   LIG    1       18.815  38.317  55.603  0.00  0.00    -0.392 OA
ATOM     25  H   LIG    1       18.545  38.741  55.967  0.00  0.00    +0.210 HD
ENDBRANCH  23  24
ENDBRANCH   2  23
BRANCH   6  26
ATOM     26  C   LIG    1       19.622  41.590  54.499  0.00  0.00    +0.200 C 
BRANCH  26  27
ATOM     27  O   LIG    1       18.984  41.514  55.265  0.00  0.00    -0.392 OA
ATOM     28  H   LIG    1       18.684  40.980  55.366  0.00  0.00    +0.210 HD
ENDBRANCH  26  27
ENDBRANCH   6  26
TORSDOF 8
ENDMDL
MODEL 5
REMARK VINA RESULT:      -6.6     14.125     15.998
REMARK  Name = 44468761
REMARK                            x       y       z     vdW  Elec       q    Type
REMARK                         _______ _______ _______ _____ _____    ______ ____
ROOT
ATOM      1  O   LIG    1       24.952  32.112  62.592  0.00  0.00    -0.354 OA
ATOM      2  C   LIG    1       24.049  31.683  62.582  0.00  0.00    +0.176 C 
ATOM      3  C   LIG    1       24.170  30.706  62.760  0.00  0.00    +0.180 C 
ATOM      4  C   LIG    1       25.147  30.531  62.880  0.00  0.00    +0.128 C 
ATOM      5  C   LIG    1       26.017  30.066  63.040  0.00  0.00    +0.047 C 
ATOM      6  C   LIG    1       25.630  31.401  62.776  0.00  0.00    +0.165 C 
ENDROOT
BRANCH   6   7
ATOM      7  C   LIG    1       26.501  30.934  62.936  0.00  0.00    +0.081 A 
ATOM      8  C   LIG    1       26.998  30.383  62.275  0.00  0.00    +0.028 A 
ATOM      9  C   LIG    1       27.825  30.048  62.712  0.00  0.00    +0.033 A 
ATOM     10  C   LIG    1       27.843  30.391  63.645  0.00  0.00    +0.105 A 
ATOM     11  C   LIG    1       28.499  30.275  64.390  0.00  0.00    +0.144 A 
ATOM     12  N   LIG    1       28.333  30.711  65.275  0.00  0.00    -0.217 NA
ATOM     13  C   LIG    1       27.510  31.262  65.414  0.00  0.00    +0.245 A 
ATOM     14  N   LIG    1       26.853  31.377  64.669  0.00  0.00    -0.154 NA
ATOM     15  N   LIG    1       27.020  30.941  63.784  0.00  0.00    -0.229 N 
BRANCH  11  16
ATOM     16  N   LIG    1       29.322  29.725  64.251  0.00  0.00    -0.341 N 
ATOM     17  H   LIG    1       29.438  29.241  64.621  0.00  0.00    +0.144 HD
ATOM     18  H   LIG    1       29.717  29.867  63.794  0.00  0.00    +0.144 HD
ENDBRANCH  11  16
ENDBRANCH   6   7
BRANCH   4  19
ATOM     19  O   LIG    1       24.955  29.561  63.029  0.00  0.00    -0.383 OA
ATOM     20  H   LIG    1       24.440  29.308  62.796  0.00  0.00    +0.210 HD
ENDBRANCH   4  19
BRANCH   3  21
ATOM     21  O   LIG    1       23.440  30.024  62.809  0.00  0.00    -0.386 OA
ATOM     22  H   LIG    1       23.496  29.537  63.190  0.00  0.00    +0.210 HD
ENDBRANCH   3  21
BRANCH   2  23
ATOM     23  C   LIG    1       23.179  32.148  62.422  0.00  0.00    +0.190 C 
BRANCH  23  24
ATOM     24  O   LIG    1       23.071  32.747  61.627  0.00  0.00    -0.392 OA
ATOM     25  H   LIG    1       23.450  32.684  61.139  0.00  0.00    +0.210 HD
ENDBRANCH  23  24
ENDBRANCH   2  23
BRANCH   6  26
ATOM     26  C   LIG    1       26.361  32.083  62.727  0.00  0.00    +0.200 C 
BRANCH  26  27
ATOM     27  O   LIG    1       26.138  33.038  62.530  0.00  0.00    -0.392 OA
ATOM     28  H   LIG    1       25.545  33.215  62.488  0.00  0.00    +0.210 HD
ENDBRANCH  26  27
ENDBRANCH   6  26
TORSDOF 8
ENDMDL
MODEL 6
REMARK VINA RESULT:      -6.4     14.934     16.744
REMARK  Name = 44468761
REMARK                            x       y       z     vdW  Elec       q    Type
REMARK                         _______ _______ _______ _____ _____    ______ ____
ROOT
ATOM      1  O   LIG    1       28.046  29.956  63.627  0.00  0.00    -0.354 OA
ATOM      2  C   LIG    1       28.637  30.333  64.340  0.00  0.00    +0.176 C 
ATOM      3  C   LIG    1       28.245  31.204  64.637  0.00  0.00    +0.180 C 
ATOM      4  C   LIG    1       27.411  31.365  64.108  0.00  0.00    +0.128 C 
ATOM      5  C   LIG    1       26.576  31.784  63.755  0.00  0.00    +0.047 C 
ATOM      6  C   LIG    1       27.289  30.593  63.484  0.00  0.00    +0.165 C 
ENDROOT
BRANCH   6   7
ATOM      7  C   LIG    1       26.452  31.013  63.131  0.00  0.00    +0.081 A 
ATOM      8  C   LIG    1       26.406  31.772  62.490  0.00  0.00    +0.028 A 
ATOM      9  C   LIG    1       25.448  31.974  62.321  0.00  0.00    +0.033 A 
ATOM     10  C   LIG    1       24.898  31.342  62.855  0.00  0.00    +0.105 A 
ATOM     11  C   LIG    1       23.910  31.228  62.952  0.00  0.00    +0.144 A 
ATOM     12  N   LIG    1       23.545  30.516  63.553  0.00  0.00    -0.217 NA
ATOM     13  C   LIG    1       24.169  29.919  64.056  0.00  0.00    +0.245 A 
ATOM     14  N   LIG    1       25.158  30.033  63.959  0.00  0.00    -0.154 NA
ATOM     15  N   LIG    1       25.523  30.744  63.358  0.00  0.00    -0.229 N 
BRANCH  11  16
ATOM     16  N   LIG    1       23.285  31.825  62.449  0.00  0.00    -0.341 N 
ATOM     17  H   LIG    1       23.406  31.973  61.859  0.00  0.00    +0.144 HD
ATOM     18  H   LIG    1       22.778  32.047  62.727  0.00  0.00    +0.144 HD
ENDBRANCH  11  16
ENDBRANCH   6   7
BRANCH   4  19
ATOM     19  O   LIG    1       27.271  32.228  64.593  0.00  0.00    -0.383 OA
ATOM     20  H   LIG    1       26.722  32.353  64.852  0.00  0.00    +0.210 HD
ENDBRANCH   4  19
BRANCH   3  21
ATOM     21  O   LIG    1       28.620  31.808  65.340  0.00  0.00    -0.386 OA
ATOM     22  H   LIG    1       29.176  32.073  65.257  0.00  0.00    +0.210 HD
ENDBRANCH   3  21
BRANCH   2  23
ATOM     23  C   LIG    1       29.473  29.914  64.693  0.00  0.00    +0.190 C 
BRANCH  23  24
ATOM     24  O   LIG    1       29.985  29.268  64.127  0.00  0.00    -0.392 OA
ATOM     25  H   LIG    1       30.072  29.386  63.524  0.00  0.00    +0.210 HD
ENDBRANCH  23  24
ENDBRANCH   2  23
BRANCH   6  26
ATOM     26  C   LIG    1       26.912  29.989  62.781  0.00  0.00    +0.200 C 
BRANCH  26  27
ATOM     27  O   LIG    1       27.397  29.151  62.532  0.00  0.00    -0.392 OA
ATOM     28  H   LIG    1       27.231  28.837  62.023  0.00  0.00    +0.210 HD
ENDBRANCH  26  27
ENDBRANCH   6  26
TORSDOF 8
ENDMDL
MODEL 7
REMARK VINA RESULT:      -6.4     12.332     13.717
REMARK  Name = 44468761
REMARK                            x       y       z     vdW  Elec       q    Type
REMARK                         _______ _______ _______ _____ _____    ______ ____
ROOT
ATOM      1  O   LIG    1       22.029  32.387  62.232  0.00  0.00    -0.354 OA
ATOM      2  C   LIG    1       22.606  31.843  62.841  0.00  0.00    +0.176 C 
ATOM      3  C   LIG    1       22.146  31.781  63.727  0.00  0.00    +0.180 C 
ATOM      4  C   LIG    1       21.285  32.287  63.665  0.00  0.00    +0.128 C 
ATOM      5  C   LIG    1       20.405  32.696  63.900  0.00  0.00    +0.047 C 
ATOM      6  C   LIG    1       21.214  32.661  62.741  0.00  0.00    +0.165 C 
ENDROOT
BRANCH   6   7
ATOM      7  C   LIG    1       20.332  33.071  62.977  0.00  0.00    +0.081 A 
ATOM      8  C   LIG    1       20.197  33.897  63.514  0.00  0.00    +0.028 A 
ATOM      9  C   LIG    1       19.220  34.062  63.585  0.00  0.00    +0.033 A 
ATOM     10  C   LIG    1       18.747  33.340  63.092  0.00  0.00    +0.105 A 
ATOM     11  C   LIG    1       17.776  33.159  62.936  0.00  0.00    +0.144 A 
ATOM     12  N   LIG    1       17.496  32.362  62.401  0.00  0.00    -0.217 NA
ATOM     13  C   LIG    1       18.187  31.746  62.022  0.00  0.00    +0.245 A 
ATOM     14  N   LIG    1       19.158  31.928  62.179  0.00  0.00    -0.154 NA
ATOM     15  N   LIG    1       19.438  32.725  62.714  0.00  0.00    -0.229 N 
BRANCH  11  16
ATOM     16  N   LIG    1       17.085  33.775  63.314  0.00  0.00    -0.341 N 
ATOM     17  H   LIG    1       17.119  34.384  63.204  0.00  0.00    +0.144 HD
ATOM     18  H   LIG    1       16.623  33.548  63.659  0.00  0.00    +0.144 HD
ENDBRANCH  11  16
ENDBRANCH   6   7
BRANCH   4  19
ATOM     19  O   LIG    1       21.082  32.056  64.617  0.00  0.00    -0.383 OA
ATOM     20  H   LIG    1       20.559  31.757  64.759  0.00  0.00    +0.210 HD
ENDBRANCH   4  19
BRANCH   3  21
ATOM     21  O   LIG    1       22.487  31.298  64.533  0.00  0.00    -0.386 OA
ATOM     22  H   LIG    1       22.616  31.613  65.052  0.00  0.00    +0.210 HD
ENDBRANCH   3  21
BRANCH   2  23
ATOM     23  C   LIG    1       23.487  31.434  62.606  0.00  0.00    +0.190 C 
BRANCH  23  24
ATOM     24  O   LIG    1       24.211  31.999  62.211  0.00  0.00    -0.392 OA
ATOM     25  H   LIG    1       24.079  32.398  61.755  0.00  0.00    +0.210 HD
ENDBRANCH  23  24
ENDBRANCH   2  23
BRANCH   6  26
ATOM     26  C   LIG    1       20.872  33.145  61.935  0.00  0.00    +0.200 C 
BRANCH  26  27
ATOM     27  O   LIG    1       21.465  33.269  61.139  0.00  0.00    -0.392 OA
ATOM     28  H   LIG    1       22.066  33.119  61.174  0.00  0.00    +0.210 HD
ENDBRANCH  26  27
ENDBRANCH   6  26
TORSDOF 8
ENDMDL
MODEL 8
REMARK VINA RESULT:      -6.2     12.438     13.604
REMARK  Name = 44468761
REMARK                            x       y       z     vdW  Elec       q    Type
REMARK                         _______ _______ _______ _____ _____    ______ ____
ROOT
ATOM      1  O   LIG    1       22.093  31.766  63.340  0.00  0.00    -0.354 OA
ATOM      2  C   LIG    1       22.824  31.963  62.688  0.00  0.00    +0.176 C 
ATOM      3  C   LIG    1       22.463  32.597  62.002  0.00  0.00    +0.180 C 
ATOM      4  C   LIG    1       21.509  32.791  62.232  0.00  0.00    +0.128 C 
ATOM      5  C   LIG    1       20.582  33.161  62.205  0.00  0.00    +0.047 C 
ATOM      6  C   LIG    1       21.281  32.277  63.059  0.00  0.00    +0.165 C 
ENDROOT
BRANCH   6   7
ATOM      7  C   LIG    1       20.352  32.649  63.031  0.00  0.00    +0.081 A 
ATOM      8  C   LIG    1       19.613  32.331  62.446  0.00  0.00    +0.028 A 
ATOM      9  C   LIG    1       18.810  32.884  62.636  0.00  0.00    +0.033 A 
ATOM     10  C   LIG    1       19.048  33.545  63.338  0.00  0.00    +0.105 A 
ATOM     11  C   LIG    1       18.520  34.265  63.790  0.00  0.00    +0.144 A 
ATOM     12  N   LIG    1       18.950  34.837  64.488  0.00  0.00    -0.217 NA
ATOM     13  C   LIG    1       19.909  34.691  64.733  0.00  0.00    +0.245 A 
ATOM     14  N   LIG    1       20.437  33.972  64.282  0.00  0.00    -0.154 NA
ATOM     15  N   LIG    1       20.006  33.399  63.584  0.00  0.00    -0.229 N 
BRANCH  11  16
ATOM     16  N   LIG    1       17.562  34.411  63.544  0.00  0.00    -0.341 N 
ATOM     17  H   LIG    1       17.408  34.534  62.956  0.00  0.00    +0.144 HD
ATOM     18  H   LIG    1       17.122  34.379  63.980  0.00  0.00    +0.144 HD
ENDBRANCH  11  16
ENDBRANCH   6   7
BRANCH   4  19
ATOM     19  O   LIG    1       21.441  33.394  61.437  0.00  0.00    -0.383 OA
ATOM     20  H   LIG    1       21.411  34.008  61.515  0.00  0.00    +0.210 HD
ENDBRANCH   4  19
BRANCH   3  21
ATOM     21  O   LIG    1       22.968  32.970  61.224  0.00  0.00    -0.386 OA
ATOM     22  H   LIG    1       23.587  33.000  61.242  0.00  0.00    +0.210 HD
ENDBRANCH   3  21
BRANCH   2  23
ATOM     23  C   LIG    1       23.751  31.593  62.715  0.00  0.00    +0.190 C 
BRANCH  23  24
ATOM     24  O   LIG    1       23.894  30.603  62.730  0.00  0.00    -0.392 OA
ATOM     25  H   LIG    1       23.925  30.303  63.272  0.00  0.00    +0.210 HD
ENDBRANCH  23  24
ENDBRANCH   2  23
BRANCH   6  26
ATOM     26  C   LIG    1       20.775  31.904  63.837  0.00  0.00    +0.200 C 
BRANCH  26  27
ATOM     27  O   LIG    1       21.193  31.201  64.413  0.00  0.00    -0.392 OA
ATOM     28  H   LIG    1       20.846  30.892  64.825  0.00  0.00    +0.210 HD
ENDBRANCH  26  27
ENDBRANCH   6  26
TORSDOF 8
ENDMDL
MODEL 9
REMARK VINA RESULT:      -6.2     13.346     15.307
REMARK  Name = 44468761
REMARK                            x       y       z     vdW  Elec       q    Type
REMARK                         _______ _______ _______ _____ _____    ______ ____
ROOT
ATOM      1  O   LIG    1       23.280  32.252  62.335  0.00  0.00    -0.354 OA
ATOM      2  C   LIG    1       22.293  32.163  62.462  0.00  0.00    +0.176 C 
ATOM      3  C   LIG    1       22.123  31.329  62.988  0.00  0.00    +0.180 C 
ATOM      4  C   LIG    1       23.005  30.903  63.185  0.00  0.00    +0.128 C 
ATOM      5  C   LIG    1       23.701  30.270  63.524  0.00  0.00    +0.047 C 
ATOM      6  C   LIG    1       23.721  31.473  62.781  0.00  0.00    +0.165 C 
ENDROOT
BRANCH   6   7
ATOM      7  C   LIG    1       24.417  30.839  63.120  0.00  0.00    +0.081 A 
ATOM      8  C   LIG    1       24.642  29.954  62.726  0.00  0.00    +0.028 A 
ATOM      9  C   LIG    1       25.368  29.550  63.271  0.00  0.00    +0.033 A 
ATOM     10  C   LIG    1       25.594  30.182  64.003  0.00  0.00    +0.105 A 
ATOM     11  C   LIG    1       26.262  30.138  64.746  0.00  0.00    +0.144 A 
ATOM     12  N   LIG    1       26.338  30.894  65.396  0.00  0.00    -0.217 NA
ATOM     13  C   LIG    1       25.747  31.695  65.303  0.00  0.00    +0.245 A 
ATOM     14  N   LIG    1       25.079  31.740  64.559  0.00  0.00    -0.154 NA
ATOM     15  N   LIG    1       25.003  30.983  63.910  0.00  0.00    -0.229 N 
BRANCH  11  16
ATOM     16  N   LIG    1       26.853  29.337  64.840  0.00  0.00    -0.341 N 
ATOM     17  H   LIG    1       27.124  29.091  64.339  0.00  0.00    +0.144 HD
ATOM     18  H   LIG    1       26.949  29.085  65.399  0.00  0.00    +0.144 HD
ENDBRANCH  11  16
ENDBRANCH   6   7
BRANCH   4  19
ATOM     19  O   LIG    1       22.539  30.165  63.674  0.00  0.00    -0.383 OA
ATOM     20  H   LIG    1       22.775  29.592  63.668  0.00  0.00    +0.210 HD
ENDBRANCH   4  19
BRANCH   3  21
ATOM     21  O   LIG    1       21.227  30.983  63.267  0.00  0.00    -0.386 OA
ATOM     22  H   LIG    1       21.165  30.685  63.808  0.00  0.00    +0.210 HD
ENDBRANCH   3  21
BRANCH   2  23
ATOM     23  C   LIG    1       21.597  32.796  62.124  0.00  0.00    +0.190 C 
BRANCH  23  24
ATOM     24  O   LIG    1       21.683  33.189  61.208  0.00  0.00    -0.392 OA
ATOM     25  H   LIG    1       21.215  33.138  60.804  0.00  0.00    +0.210 HD
ENDBRANCH  23  24
ENDBRANCH   2  23
BRANCH   6  26
ATOM     26  C   LIG    1       24.617  31.819  62.502  0.00  0.00    +0.200 C 
BRANCH  26  27
ATOM     27  O   LIG    1       24.679  32.600  61.880  0.00  0.00    -0.392 OA
ATOM     28  H   LIG    1       25.235  32.826  61.722  0.00  0.00    +0.210 HD
ENDBRANCH  26  27
ENDBRANCH   6  26
TORSDOF 8
ENDMDL
